data_functionalizedCrystal
_audit_creation_method	'EQeq! by Chris Wilmer'
_symmetry_space_group_name_H-M	'P1'
_symmetry_Int_Tables_number	1
_symmetry_cell_setting	triclinic
loop_
_symmetry_equiv_pos_as_xyz
  x,y,z
_cell_length_a	16.1035
_cell_length_b	16.1035
_cell_length_c	28.128
_cell_angle_alpha	79.3908
_cell_angle_beta	79.3908
_cell_angle_gamma	63.1772
loop_
_atom_site_label
_atom_site_type_symbol
_atom_site_fract_x
_atom_site_fract_y
_atom_site_fract_z
_atom_site_charge
Ce	Ce	0.53122	0.06662	0.0461	2.615
Ce	Ce	0.93338	0.46878	0.4539	2.621
Ce	Ce	0.46878	0.93338	0.9539	2.616
Ce	Ce	0.06662	0.53122	0.5461	2.622
H 	H 	0.6338	0.0644	0.2034	0.016
H 	H 	0.7069	0.1057	0.2535	0.096
H 	H 	0.8422	0.1938	0.1335	0.094
H 	H 	0.7603	0.1611	0.0857	0.016
H 	H 	0.3253	0.8277	0.09	-0.043
H 	H 	0.2623	0.7657	0.1591	0.139
H 	H 	0.3662	0.866	0.2422	0.122
H 	H 	0.4304	0.9314	0.1705	-0.031
H 	H 	0.8239	0.7883	0.056	-0.019
H 	H 	0.9492	0.6464	0.0426	0.126
H 	H 	0.8075	0.5885	0.9609	0.129
H 	H 	0.6824	0.7322	0.9688	-0.12
H 	H 	0.9356	0.3662	0.2966	0.016
H 	H 	0.8943	0.2931	0.2465	0.096
H 	H 	0.8062	0.1578	0.3665	0.094
H 	H 	0.8389	0.2397	0.4143	0.016
H 	H 	0.1723	0.6747	0.41	-0.044
H 	H 	0.2343	0.7377	0.3409	0.14
H 	H 	0.134	0.6338	0.2578	0.122
H 	H 	0.0686	0.5696	0.3295	-0.032
H 	H 	0.2117	0.1761	0.444	-0.02
H 	H 	0.3536	0.0508	0.4574	0.126
H 	H 	0.4115	0.1925	0.5391	0.13
H 	H 	0.2678	0.3176	0.5312	-0.121
H 	H 	0.3662	0.9356	0.7966	0.016
H 	H 	0.2931	0.8943	0.7465	0.096
H 	H 	0.1578	0.8062	0.8665	0.094
H 	H 	0.2397	0.8389	0.9143	0.016
H 	H 	0.6747	0.1723	0.91	-0.043
H 	H 	0.7377	0.2343	0.8409	0.139
H 	H 	0.6338	0.134	0.7578	0.122
H 	H 	0.5696	0.0686	0.8295	-0.031
H 	H 	0.1761	0.2117	0.944	-0.019
H 	H 	0.0508	0.3536	0.9574	0.126
H 	H 	0.1925	0.4115	0.0391	0.129
H 	H 	0.3176	0.2678	0.0312	-0.12
H 	H 	0.0644	0.6338	0.7034	0.016
H 	H 	0.1057	0.7069	0.7535	0.096
H 	H 	0.1938	0.8422	0.6335	0.094
H 	H 	0.1611	0.7603	0.5857	0.016
H 	H 	0.8277	0.3253	0.59	-0.044
H 	H 	0.7657	0.2623	0.6591	0.14
H 	H 	0.866	0.3662	0.7422	0.122
H 	H 	0.9314	0.4304	0.6705	-0.032
H 	H 	0.7883	0.8239	0.556	-0.02
H 	H 	0.6464	0.9492	0.5426	0.126
H 	H 	0.5885	0.8075	0.4609	0.13
H 	H 	0.7322	0.6824	0.4688	-0.121
C 	C 	0.64537	0.07657	0.10996	0.333
C 	C 	0.7047	0.0929	0.13889	-0.122
C 	C 	0.67819	0.08659	0.18993	0.056
C 	C 	0.71977	0.11437	0.21978	-0.167
C 	C 	0.78	0.1546	0.19905	0.15
C 	C 	0.80038	0.16858	0.14755	-0.171
C 	C 	0.75586	0.14346	0.11917	0.069
C 	C 	0.42105	0.92385	0.07698	0.553
C 	C 	0.3814	0.8868	0.12306	-0.279
C 	C 	0.33281	0.83661	0.12041	0.205
C 	C 	0.29532	0.79932	0.16129	-0.294
C 	C 	0.30756	0.81276	0.20473	0.231
C 	C 	0.35806	0.86006	0.21131	-0.26
C 	C 	0.39623	0.89883	0.16853	0.177
C 	C 	0.6649	0.8707	0.01912	0.567
C 	C 	0.74092	0.77732	0.01256	-0.293
C 	C 	0.82112	0.74972	0.03603	0.183
C 	C 	0.89479	0.66459	0.02854	-0.255
C 	C 	0.88958	0.60218	0.99911	0.238
C 	C 	0.81128	0.62928	0.97901	-0.314
C 	C 	0.73562	0.71502	0.98379	0.223
C 	C 	0.92343	0.35463	0.39004	0.333
C 	C 	0.9071	0.2953	0.36111	-0.122
C 	C 	0.91341	0.32181	0.31007	0.055
C 	C 	0.88563	0.28023	0.28022	-0.167
C 	C 	0.8454	0.22	0.30095	0.15
C 	C 	0.83142	0.19962	0.35245	-0.17
C 	C 	0.85654	0.24414	0.38083	0.069
C 	C 	0.07615	0.57895	0.42302	0.554
C 	C 	0.1132	0.6186	0.37694	-0.28
C 	C 	0.16339	0.66719	0.37959	0.205
C 	C 	0.20068	0.70468	0.33871	-0.295
C 	C 	0.18724	0.69244	0.29527	0.232
C 	C 	0.13994	0.64194	0.28869	-0.26
C 	C 	0.10117	0.60377	0.33147	0.177
C 	C 	0.1293	0.3351	0.48088	0.566
C 	C 	0.22268	0.25908	0.48744	-0.295
C 	C 	0.25028	0.17888	0.46397	0.185
C 	C 	0.33541	0.10521	0.47146	-0.258
C 	C 	0.39782	0.11042	0.50089	0.24
C 	C 	0.37072	0.18872	0.52099	-0.316
C 	C 	0.28498	0.26438	0.51621	0.226
C 	C 	0.35463	0.92343	0.89004	0.333
C 	C 	0.2953	0.9071	0.86111	-0.122
C 	C 	0.32181	0.91341	0.81007	0.056
C 	C 	0.28023	0.88563	0.78022	-0.167
C 	C 	0.22	0.8454	0.80095	0.15
C 	C 	0.19962	0.83142	0.85245	-0.171
C 	C 	0.24414	0.85654	0.88083	0.069
C 	C 	0.57895	0.07615	0.92302	0.553
C 	C 	0.6186	0.1132	0.87694	-0.279
C 	C 	0.66719	0.16339	0.87959	0.205
C 	C 	0.70468	0.20068	0.83871	-0.294
C 	C 	0.69244	0.18724	0.79527	0.231
C 	C 	0.64194	0.13994	0.78869	-0.26
C 	C 	0.60377	0.10117	0.83147	0.177
C 	C 	0.3351	0.1293	0.98088	0.567
C 	C 	0.25908	0.22268	0.98744	-0.293
C 	C 	0.17888	0.25028	0.96397	0.183
C 	C 	0.10521	0.33541	0.97146	-0.255
C 	C 	0.11042	0.39782	0.00089	0.238
C 	C 	0.18872	0.37072	0.02099	-0.314
C 	C 	0.26438	0.28498	0.01621	0.223
C 	C 	0.07657	0.64537	0.60996	0.333
C 	C 	0.0929	0.7047	0.63889	-0.122
C 	C 	0.08659	0.67819	0.68993	0.055
C 	C 	0.11437	0.71977	0.71978	-0.167
C 	C 	0.1546	0.78	0.69905	0.15
C 	C 	0.16858	0.80038	0.64755	-0.17
C 	C 	0.14346	0.75586	0.61917	0.069
C 	C 	0.92385	0.42105	0.57698	0.554
C 	C 	0.8868	0.3814	0.62306	-0.28
C 	C 	0.83661	0.33281	0.62041	0.205
C 	C 	0.79932	0.29532	0.66129	-0.295
C 	C 	0.81276	0.30756	0.70473	0.232
C 	C 	0.86006	0.35806	0.71131	-0.26
C 	C 	0.89883	0.39623	0.66853	0.177
C 	C 	0.8707	0.6649	0.51912	0.566
C 	C 	0.77732	0.74092	0.51256	-0.295
C 	C 	0.74972	0.82112	0.53603	0.185
C 	C 	0.66459	0.89479	0.52854	-0.258
C 	C 	0.60218	0.88958	0.49911	0.24
C 	C 	0.62928	0.81128	0.47901	-0.316
C 	C 	0.71502	0.73562	0.48379	0.226
N 	N 	0.82003	0.19043	0.22509	-0.104
N 	N 	0.27596	0.77396	0.24918	-0.117
N 	N 	0.95558	0.51536	0.99474	-0.126
N 	N 	0.80957	0.17997	0.27491	-0.104
N 	N 	0.22604	0.72404	0.25082	-0.117
N 	N 	0.48464	0.04442	0.50526	-0.126
N 	N 	0.17997	0.80957	0.77491	-0.104
N 	N 	0.72404	0.22604	0.75082	-0.117
N 	N 	0.04442	0.48464	0.00526	-0.126
N 	N 	0.19043	0.82003	0.72509	-0.104
N 	N 	0.77396	0.27596	0.74918	-0.117
N 	N 	0.51536	0.95558	0.49474	-0.126
O 	O 	0.59068	0.04176	0.12603	-0.512
O 	O 	0.65646	0.10362	0.06344	-0.498
O 	O 	0.40755	0.91535	0.03519	-0.655
O 	O 	0.46928	0.96352	0.0862	-0.65
O 	O 	0.59706	0.8965	0.99714	-0.755
O 	O 	0.67496	0.92064	0.04606	-0.553
O 	O 	0.95824	0.40932	0.37397	-0.512
O 	O 	0.89638	0.34354	0.43656	-0.498
O 	O 	0.08465	0.59245	0.46481	-0.657
O 	O 	0.03648	0.53072	0.4138	-0.652
O 	O 	0.1035	0.40294	0.50286	-0.754
O 	O 	0.07936	0.32504	0.45394	-0.554
O 	O 	0.40932	0.95824	0.87397	-0.512
O 	O 	0.34354	0.89638	0.93656	-0.498
O 	O 	0.59245	0.08465	0.96481	-0.655
O 	O 	0.53072	0.03648	0.9138	-0.65
O 	O 	0.40294	0.1035	0.00286	-0.755
O 	O 	0.32504	0.07936	0.95394	-0.553
O 	O 	0.04176	0.59068	0.62603	-0.512
O 	O 	0.10362	0.65646	0.56344	-0.498
O 	O 	0.91535	0.40755	0.53519	-0.657
O 	O 	0.96352	0.46928	0.5862	-0.652
O 	O 	0.8965	0.59706	0.49714	-0.754
O 	O 	0.92064	0.67496	0.54606	-0.554
_end
