data_functionalizedCrystal
_audit_creation_method	'EQeq! by Chris Wilmer'
_symmetry_space_group_name_H-M	'P1'
_symmetry_Int_Tables_number	1
_symmetry_cell_setting	triclinic
loop_
_symmetry_equiv_pos_as_xyz
  x,y,z
_cell_length_a	12.7259
_cell_length_b	18.7486
_cell_length_c	36.7932
_cell_angle_alpha	90
_cell_angle_beta	90
_cell_angle_gamma	101.452
loop_
_atom_site_label
_atom_site_type_symbol
_atom_site_fract_x
_atom_site_fract_y
_atom_site_fract_z
_atom_site_charge
Na	Na	0.03406	0.01926	0.84611	2.532
Na	Na	0.46594	0.48074	0.34611	2.588
Na	Na	0.96594	0.98074	0.15389	2.611
Na	Na	0.53406	0.51926	0.65389	2.588
Co	Co	0.58053	0.82891	0.71069	1.166
Co	Co	0.91947	0.67109	0.21069	1.167
Co	Co	0.41947	0.17109	0.28931	1.165
Co	Co	0.08053	0.32891	0.78931	1.163
Co	Co	-0	0	-0	1.096
Co	Co	0.5	0.5	0.5	1.109
H 	H 	0.978	0.7021	0.7966	-0.01
H 	H 	0.2939	0.7837	0.8076	-0.011
H 	H 	0.3096	0.0205	0.8989	0.002
H 	H 	0.3017	0.1763	0.824	0.002
H 	H 	0.2718	0.019	0.6954	-0.002
H 	H 	0.9537	0.9454	0.6856	0.011
H 	H 	0.7654	0.0448	0.8042	-0.027
H 	H 	0.7737	0.8852	0.877	-0.005
H 	H 	0.0106	0.8415	0.9081	0.078
H 	H 	0.1371	0.8728	0.9106	0.091
H 	H 	0.4558	0.9901	0.7714	0.073
H 	H 	0.4335	0.9221	0.7986	0.087
H 	H 	0.1238	0.1793	0.773	0.08
H 	H 	0.9988	0.1552	0.7635	0.088
H 	H 	0.9315	0.7858	0.7368	0.073
H 	H 	0.8504	0.7664	0.7702	0.086
H 	H 	0.3168	0.6767	0.7832	0.314
H 	H 	0.2934	0.6535	0.7417	0.298
H 	H 	0.3136	0.7376	0.753	0.313
H 	H 	0.1459	0.5919	0.8008	0.32
H 	H 	0.0366	0.5988	0.7809	0.308
H 	H 	0.1288	0.5705	0.7589	0.304
H 	H 	0.1231	0.6643	0.713	0.281
H 	H 	0.0322	0.6922	0.7359	0.293
H 	H 	0.1393	0.7481	0.7246	0.296
H 	H 	0.1619	0.1472	0.9126	0.205
H 	H 	0.2276	0.0941	0.9326	0.23
H 	H 	0.2422	0.1772	0.9451	0.234
H 	H 	0.4644	0.1226	0.9089	0.224
H 	H 	0.4799	0.207	0.9193	0.216
H 	H 	0.4106	0.1466	0.945	0.241
H 	H 	0.4074	0.2627	0.8822	0.274
H 	H 	0.2945	0.2413	0.8618	0.295
H 	H 	0.2989	0.2671	0.9033	0.28
H 	H 	0.2536	0.0136	0.6272	0.267
H 	H 	0.2952	0.9552	0.6523	0.293
H 	H 	0.2519	0.9332	0.6122	0.272
H 	H 	0.0414	0.8398	0.6679	0.279
H 	H 	0.1223	0.8286	0.636	0.262
H 	H 	0.1668	0.8487	0.6762	0.289
H 	H 	0.0587	0.0002	0.6148	0.271
H 	H 	0.0594	0.9212	0.5985	0.27
H 	H 	0.9768	0.9307	0.63	0.29
H 	H 	0.5482	0.9363	0.8668	0.278
H 	H 	0.6217	0.9139	0.8985	0.277
H 	H 	0.5592	0.9791	0.9047	0.277
H 	H 	0.6052	0.055	0.8351	0.255
H 	H 	0.6154	0.095	0.8737	0.251
H 	H 	0.7149	0.108	0.8462	0.247
H 	H 	0.7329	0.0614	0.9212	0.251
H 	H 	0.7942	0.9957	0.9148	0.244
H 	H 	0.8321	0.0711	0.8937	0.218
H 	H 	0.475	0.2017	0.0487	0.115
H 	H 	0.9024	0.4048	0.0918	0.119
H 	H 	0.405	0.0297	0.0056	0.118
H 	H 	0.2296	0.9759	0.9943	0.001
H 	H 	0.1257	0.1465	0.0294	-0.035
H 	H 	0.2947	0.2051	0.0431	0.085
H 	H 	0.7655	0.1514	0.0053	0.025
H 	H 	0.9243	0.2282	0.0211	0.045
H 	H 	0.9249	0.3195	0.0635	0.014
H 	H 	0.6024	0.2612	0.0717	0.026
H 	H 	0.6996	0.4769	0.1338	0.114
H 	H 	0.7338	0.578	0.1705	-0.023
H 	H 	0.0425	0.5819	0.1679	-0.038
H 	H 	0.0182	0.4855	0.1279	0.074
H 	H 	0.522	0.7979	0.2966	-0.026
H 	H 	0.2061	0.7163	0.3076	-0.014
H 	H 	0.1904	0.4795	0.3989	-0.005
H 	H 	0.1983	0.3237	0.324	-0.003
H 	H 	0.2282	0.481	0.1954	-0.017
H 	H 	0.5463	0.5546	0.1856	-0.015
H 	H 	0.7346	0.4552	0.3042	-0.024
H 	H 	0.7263	0.6148	0.377	-0.007
H 	H 	0.4894	0.6585	0.4081	0.077
H 	H 	0.3629	0.6272	0.4106	0.087
H 	H 	0.0442	0.5099	0.2714	0.064
H 	H 	0.0665	0.5779	0.2986	0.082
H 	H 	0.3762	0.3207	0.273	0.069
H 	H 	0.5012	0.3448	0.2635	0.064
H 	H 	0.5685	0.7142	0.2368	0.068
H 	H 	0.6496	0.7336	0.2702	0.084
H 	H 	0.1832	0.8233	0.2832	0.317
H 	H 	0.2066	0.8465	0.2417	0.301
H 	H 	0.1864	0.7624	0.253	0.317
H 	H 	0.3541	0.9081	0.3008	0.327
H 	H 	0.4634	0.9012	0.2809	0.319
H 	H 	0.3712	0.9295	0.2589	0.313
H 	H 	0.3769	0.8357	0.213	0.287
H 	H 	0.4678	0.8078	0.2359	0.301
H 	H 	0.3607	0.7519	0.2246	0.301
H 	H 	0.3381	0.3528	0.4126	0.205
H 	H 	0.2724	0.4059	0.4326	0.231
H 	H 	0.2578	0.3228	0.4451	0.232
H 	H 	0.0356	0.3774	0.4089	0.22
H 	H 	0.0201	0.293	0.4193	0.21
H 	H 	0.0894	0.3534	0.445	0.237
H 	H 	0.0926	0.2373	0.3822	0.271
H 	H 	0.2055	0.2587	0.3618	0.294
H 	H 	0.2011	0.2329	0.4033	0.278
H 	H 	0.2464	0.4864	0.1272	0.297
H 	H 	0.2048	0.5448	0.1523	0.315
H 	H 	0.2481	0.5668	0.1122	0.292
H 	H 	0.4586	0.6602	0.1679	0.297
H 	H 	0.3777	0.6714	0.136	0.278
H 	H 	0.3332	0.6513	0.1762	0.304
H 	H 	0.4413	0.4998	0.1148	0.305
H 	H 	0.4406	0.5788	0.0985	0.291
H 	H 	0.5232	0.5693	0.13	0.307
H 	H 	0.9518	0.5637	0.3668	0.284
H 	H 	0.8783	0.5861	0.3985	0.283
H 	H 	0.9408	0.5209	0.4047	0.281
H 	H 	0.8948	0.445	0.3351	0.262
H 	H 	0.8846	0.405	0.3737	0.257
H 	H 	0.7851	0.392	0.3462	0.249
H 	H 	0.7671	0.4386	0.4212	0.247
H 	H 	0.7058	0.5043	0.4148	0.233
H 	H 	0.6679	0.4289	0.3937	0.208
H 	H 	0.025	0.2983	0.5487	0.112
H 	H 	0.5976	0.0952	0.5918	0.116
H 	H 	0.095	0.4703	0.5056	0.126
H 	H 	0.2704	0.5241	0.4943	-0.021
H 	H 	0.3743	0.3535	0.5294	-0.032
H 	H 	0.2053	0.2949	0.5431	0.086
H 	H 	0.7345	0.3486	0.5053	0.026
H 	H 	0.5757	0.2718	0.5211	0.042
H 	H 	0.5751	0.1805	0.5635	0.012
H 	H 	0.8976	0.2388	0.5717	0.029
H 	H 	0.8004	0.0231	0.6338	0.117
H 	H 	0.7662	0.922	0.6705	-0.024
H 	H 	0.4575	0.9181	0.6679	-0.024
H 	H 	0.4818	0.0145	0.6279	0.07
H 	H 	0.022	0.2979	0.2034	-0.04
H 	H 	0.7061	0.2163	0.1924	-0.016
H 	H 	0.6904	0.9795	0.1011	-0.008
H 	H 	0.6983	0.8237	0.176	-0.006
H 	H 	0.7282	0.981	0.3046	-0.019
H 	H 	0.0463	0.0546	0.3144	-0.036
H 	H 	0.2346	0.9552	0.1958	-0.015
H 	H 	0.2263	0.1148	0.123	-0.008
H 	H 	0.9894	0.1585	0.0919	0.081
H 	H 	0.8629	0.1272	0.0894	0.087
H 	H 	0.5442	0.0099	0.2286	0.063
H 	H 	0.5665	0.0779	0.2014	0.082
H 	H 	0.8762	0.8207	0.227	0.066
H 	H 	0.0012	0.8448	0.2365	0.059
H 	H 	0.0685	0.2142	0.2632	0.064
H 	H 	0.1496	0.2336	0.2298	0.083
H 	H 	0.6832	0.3233	0.2168	0.321
H 	H 	0.7066	0.3465	0.2583	0.304
H 	H 	0.6864	0.2624	0.247	0.32
H 	H 	0.8541	0.4081	0.1992	0.33
H 	H 	0.9634	0.4012	0.2191	0.324
H 	H 	0.8712	0.4295	0.2411	0.315
H 	H 	0.8769	0.3357	0.287	0.291
H 	H 	0.9678	0.3078	0.2641	0.309
H 	H 	0.8607	0.2519	0.2754	0.306
H 	H 	0.8381	0.8528	0.0874	0.207
H 	H 	0.7724	0.9059	0.0674	0.232
H 	H 	0.7578	0.8228	0.0549	0.234
H 	H 	0.5356	0.8774	0.0911	0.226
H 	H 	0.5201	0.793	0.0807	0.215
H 	H 	0.5894	0.8534	0.055	0.24
H 	H 	0.5926	0.7373	0.1178	0.277
H 	H 	0.7055	0.7587	0.1382	0.299
H 	H 	0.7011	0.7329	0.0967	0.283
H 	H 	0.7464	0.9864	0.3728	0.307
H 	H 	0.7048	0.0448	0.3477	0.32
H 	H 	0.7481	0.0668	0.3878	0.298
H 	H 	0.9586	0.1602	0.3321	0.304
H 	H 	0.8777	0.1714	0.364	0.283
H 	H 	0.8332	0.1513	0.3238	0.307
H 	H 	0.9413	0.9998	0.3852	0.302
H 	H 	0.9406	0.0788	0.4015	0.288
H 	H 	0.0232	0.0693	0.37	0.292
H 	H 	0.4518	0.0637	0.1332	0.282
H 	H 	0.3783	0.0861	0.1015	0.282
H 	H 	0.4408	0.0209	0.0953	0.277
H 	H 	0.3948	0.945	0.1649	0.262
H 	H 	0.3846	0.905	0.1263	0.254
H 	H 	0.2851	0.892	0.1538	0.247
H 	H 	0.2671	0.9386	0.0788	0.238
H 	H 	0.2058	0.0043	0.0852	0.215
H 	H 	0.1679	0.9289	0.1063	0.198
H 	H 	0.525	0.7983	0.9513	0.116
H 	H 	0.0976	0.5952	0.9082	0.115
H 	H 	0.595	0.9703	0.9944	0.137
H 	H 	0.7704	0.0241	0.0057	-0.035
H 	H 	0.8743	0.8535	0.9706	-0.029
H 	H 	0.7053	0.7949	0.9569	0.09
H 	H 	0.2345	0.8486	0.9947	0.027
H 	H 	0.0757	0.7718	0.9789	0.041
H 	H 	0.0751	0.6805	0.9365	0.011
H 	H 	0.3976	0.7388	0.9283	0.026
H 	H 	0.3004	0.5231	0.8662	0.116
H 	H 	0.2662	0.422	0.8295	-0.024
H 	H 	0.9575	0.4181	0.8321	-0.017
H 	H 	0.9818	0.5145	0.8721	0.1
H 	H 	0.478	0.2021	0.7034	-0.026
H 	H 	0.7939	0.2837	0.6924	-0.013
H 	H 	0.8096	0.5205	0.6011	-0.005
H 	H 	0.8017	0.6763	0.676	-0.004
H 	H 	0.7718	0.519	0.8046	-0.016
H 	H 	0.4537	0.4454	0.8144	-0.015
H 	H 	0.2654	0.5448	0.6958	-0.022
H 	H 	0.2737	0.3852	0.623	-0.006
H 	H 	0.5106	0.3415	0.5919	0.077
H 	H 	0.6371	0.3728	0.5894	0.087
H 	H 	0.9558	0.4901	0.7286	0.071
H 	H 	0.9335	0.4221	0.7014	0.087
H 	H 	0.6238	0.6793	0.727	0.069
H 	H 	0.4988	0.6552	0.7365	0.065
H 	H 	0.4315	0.2858	0.7632	0.069
H 	H 	0.3504	0.2664	0.7298	0.084
H 	H 	0.8168	0.1767	0.7168	0.32
H 	H 	0.7934	0.1535	0.7583	0.304
H 	H 	0.8136	0.2376	0.747	0.319
H 	H 	0.6459	0.0919	0.6992	0.324
H 	H 	0.5366	0.0988	0.7191	0.315
H 	H 	0.6288	0.0705	0.7411	0.308
H 	H 	0.6231	0.1643	0.787	0.287
H 	H 	0.5322	0.1922	0.7641	0.301
H 	H 	0.6393	0.2481	0.7754	0.301
H 	H 	0.6619	0.6472	0.5874	0.209
H 	H 	0.7276	0.5941	0.5674	0.235
H 	H 	0.7422	0.6772	0.5549	0.238
H 	H 	0.9644	0.6226	0.5911	0.232
H 	H 	0.9799	0.707	0.5807	0.222
H 	H 	0.9106	0.6466	0.555	0.246
H 	H 	0.9074	0.7627	0.6178	0.283
H 	H 	0.7945	0.7413	0.6382	0.302
H 	H 	0.7989	0.7671	0.5967	0.287
H 	H 	0.7536	0.5136	0.8728	0.304
H 	H 	0.7952	0.4552	0.8477	0.32
H 	H 	0.7519	0.4332	0.8878	0.299
H 	H 	0.5414	0.3398	0.8321	0.3
H 	H 	0.6223	0.3286	0.864	0.281
H 	H 	0.6668	0.3487	0.8238	0.307
H 	H 	0.5587	0.5002	0.8852	0.308
H 	H 	0.5594	0.4212	0.9015	0.295
H 	H 	0.4768	0.4307	0.87	0.31
H 	H 	0.0482	0.4363	0.6332	0.272
H 	H 	0.1217	0.4139	0.6015	0.274
H 	H 	0.0592	0.4791	0.5953	0.27
H 	H 	0.1052	0.555	0.6649	0.253
H 	H 	0.1154	0.595	0.6263	0.247
H 	H 	0.2149	0.608	0.6538	0.243
H 	H 	0.2329	0.5614	0.5788	0.243
H 	H 	0.2942	0.4957	0.5852	0.229
H 	H 	0.3321	0.5711	0.6063	0.204
H 	H 	0.975	0.7017	0.4513	0.117
H 	H 	0.4024	0.9048	0.4082	0.119
H 	H 	0.905	0.5297	0.4944	0.131
H 	H 	0.7296	0.4759	0.5057	-0.022
H 	H 	0.6257	0.6465	0.4706	-0.032
H 	H 	0.7947	0.7051	0.4569	0.089
H 	H 	0.2655	0.6514	0.4947	0.026
H 	H 	0.4243	0.7282	0.4789	0.042
H 	H 	0.4249	0.8195	0.4365	0.013
H 	H 	0.1024	0.7612	0.4283	0.025
H 	H 	0.1996	0.9769	0.3662	0.114
H 	H 	0.2338	0.078	0.3295	-0.022
H 	H 	0.5425	0.0819	0.3321	-0.035
H 	H 	0.5182	0.9855	0.3721	0.099
C 	C 	0.09407	0.84287	0.84388	0.188
C 	C 	0.01078	0.79108	0.82938	-0.124
C 	C 	0.03502	0.73772	0.80614	0.083
C 	C 	0.14023	0.73493	0.79648	-0.27
C 	C 	0.2213	0.7854	0.81282	0.105
C 	C 	0.19908	0.83828	0.83651	-0.113
C 	C 	0.30084	0.00414	0.81075	0.046
C 	C 	0.30233	0.98343	0.84691	-0.086
C 	C 	0.3081	0.0354	0.87423	-0.03
C 	C 	0.3116	0.1083	0.86656	-0.24
C 	C 	0.3034	0.1273	0.8301	-0.01
C 	C 	0.2977	0.0763	0.80261	-0.094
C 	C 	0.08096	0.04446	0.75059	0.144
C 	C 	0.18423	0.04963	0.73694	-0.084
C 	C 	0.2007	0.0158	0.70414	0.056
C 	C 	0.1157	0.9777	0.6841	-0.217
C 	C 	0.0131	0.9726	0.69845	0.047
C 	C 	0.99526	0.00566	0.73049	-0.069
C 	C 	0.86796	0.89986	0.79423	0.086
C 	C 	0.84015	0.96615	0.7858	-0.136
C 	C 	0.7839	0.9998	0.81062	0.014
C 	C 	0.7537	0.97	0.84461	-0.256
C 	C 	0.7888	0.9056	0.85346	0
C 	C 	0.84499	0.87079	0.82895	-0.134
C 	C 	0.0678	0.8844	0.90297	-0.189
C 	C 	0.0474	0.9481	0.92405	0.465
C 	C 	0.4074	0.9429	0.77639	-0.174
C 	C 	0.4119	0.8918	0.74474	0.377
C 	C 	0.05471	0.14981	0.78138	-0.245
C 	C 	0.0264	0.1764	0.81792	0.47
C 	C 	0.8767	0.8035	0.75145	-0.162
C 	C 	0.78446	0.81166	0.72705	0.366
C 	C 	0.1629	0.6813	0.76721	0.715
C 	C 	0.2823	0.6879	0.7607	-1.002
C 	C 	0.1143	0.6038	0.77789	-1.007
C 	C 	0.1097	0.698	0.73208	-0.965
C 	C 	0.3221	0.1654	0.89678	0.556
C 	C 	0.2301	0.144	0.9243	-0.781
C 	C 	0.4301	0.1599	0.9198	-0.74
C 	C 	0.3315	0.2402	0.8851	-0.936
C 	C 	0.1304	0.9371	0.64877	0.653
C 	C 	0.2428	0.962	0.63381	-0.909
C 	C 	0.1137	0.8563	0.65804	-0.917
C 	C 	0.0492	0.9483	0.62056	-0.926
C 	C 	0.6932	0.0087	0.87199	0.586
C 	C 	0.597	0.9547	0.88683	-0.872
C 	C 	0.6537	0.0723	0.85527	-0.86
C 	C 	0.7701	0.0368	0.90324	-0.827
C 	C 	0.349	0.0549	0.01089	-0.213
C 	C 	0.2439	0.0236	0.00426	0.06
C 	C 	0.1834	0.1224	0.02476	0.093
C 	C 	0.2835	0.1578	0.03271	-0.227
C 	C 	0.3714	0.1251	0.02566	0.175
C 	C 	0.5684	0.1484	0.02391	0.217
C 	C 	0.668	0.1992	0.03629	-0.085
C 	C 	0.7644	0.1898	0.0221	0.003
C 	C 	0.8588	0.2348	0.03167	-0.085
C 	C 	0.8591	0.2891	0.05641	0.001
C 	C 	0.7615	0.3	0.07137	-0.083
C 	C 	0.6683	0.2547	0.06133	0.008
C 	C 	0.7554	0.3589	0.09758	0.224
C 	C 	0.8555	0.4696	0.12691	0.198
C 	C 	0.7715	0.4983	0.1401	-0.236
C 	C 	0.7927	0.558	0.1624	0.113
C 	C 	0.9717	0.5608	0.1604	0.107
C 	C 	0.9579	0.5027	0.13704	-0.22
C 	C 	0.40593	0.65713	0.34388	0.193
C 	C 	0.48922	0.70892	0.32938	-0.126
C 	C 	0.46498	0.76228	0.30614	0.107
C 	C 	0.35977	0.76507	0.29648	-0.284
C 	C 	0.2787	0.7146	0.31282	0.113
C 	C 	0.30092	0.66172	0.33651	-0.12
C 	C 	0.19916	0.49586	0.31075	0.08
C 	C 	0.19767	0.51657	0.34691	-0.123
C 	C 	0.1919	0.4646	0.37423	-0.001
C 	C 	0.1884	0.3917	0.36656	-0.255
C 	C 	0.1966	0.3727	0.3301	0.002
C 	C 	0.2023	0.4237	0.30261	-0.111
C 	C 	0.41904	0.45554	0.25059	0.188
C 	C 	0.31577	0.45037	0.23694	-0.112
C 	C 	0.2993	0.4842	0.20414	0.109
C 	C 	0.3843	0.5223	0.1841	-0.278
C 	C 	0.4869	0.5274	0.19845	0.105
C 	C 	0.50474	0.49434	0.23049	-0.119
C 	C 	0.63204	0.60014	0.29423	0.086
C 	C 	0.65985	0.53385	0.2858	-0.146
C 	C 	0.7161	0.5002	0.31062	0.006
C 	C 	0.7463	0.53	0.34461	-0.265
C 	C 	0.7112	0.5944	0.35346	0.002
C 	C 	0.65501	0.62921	0.32895	-0.139
C 	C 	0.4322	0.6156	0.40297	-0.18
C 	C 	0.4526	0.5519	0.42405	0.449
C 	C 	0.0926	0.5571	0.27639	-0.165
C 	C 	0.0881	0.6082	0.24474	0.373
C 	C 	0.44529	0.35019	0.28138	-0.205
C 	C 	0.4736	0.3236	0.31792	0.461
C 	C 	0.6233	0.6965	0.25145	-0.158
C 	C 	0.71554	0.68834	0.22705	0.364
C 	C 	0.3371	0.8187	0.26721	0.731
C 	C 	0.2177	0.8121	0.2607	-1.014
C 	C 	0.3857	0.8962	0.27789	-1.028
C 	C 	0.3903	0.802	0.23208	-0.981
C 	C 	0.1779	0.3346	0.39678	0.557
C 	C 	0.2699	0.356	0.4243	-0.78
C 	C 	0.0699	0.3401	0.4198	-0.734
C 	C 	0.1685	0.2598	0.3851	-0.934
C 	C 	0.3696	0.5629	0.14877	0.715
C 	C 	0.2572	0.538	0.13381	-0.994
C 	C 	0.3863	0.6437	0.15804	-0.971
C 	C 	0.4508	0.5517	0.12056	-1.003
C 	C 	0.8068	0.4913	0.37199	0.598
C 	C 	0.903	0.5453	0.38683	-0.89
C 	C 	0.8463	0.4277	0.35527	-0.872
C 	C 	0.7299	0.4632	0.40324	-0.812
C 	C 	0.151	0.4451	0.51089	-0.232
C 	C 	0.2561	0.4764	0.50426	0.096
C 	C 	0.3166	0.3776	0.52476	0.097
C 	C 	0.2165	0.3422	0.53271	-0.232
C 	C 	0.1286	0.3749	0.52566	0.182
C 	C 	0.9316	0.3516	0.52391	0.227
C 	C 	0.832	0.3008	0.53629	-0.085
C 	C 	0.7356	0.3102	0.5221	0.003
C 	C 	0.6412	0.2652	0.53167	-0.084
C 	C 	0.6409	0.2109	0.55641	-0
C 	C 	0.7385	0.2	0.57137	-0.082
C 	C 	0.8317	0.2453	0.56133	0.009
C 	C 	0.7446	0.1411	0.59758	0.223
C 	C 	0.6445	0.0304	0.62691	0.187
C 	C 	0.7285	0.0017	0.6401	-0.241
C 	C 	0.7073	0.942	0.6624	0.121
C 	C 	0.5283	0.9392	0.6604	0.087
C 	C 	0.5421	0.9973	0.63704	-0.2
C 	C 	0.90593	0.15713	0.15612	0.195
C 	C 	0.98922	0.20892	0.17062	-0.122
C 	C 	0.96498	0.26228	0.19386	0.128
C 	C 	0.85977	0.26507	0.20352	-0.294
C 	C 	0.7787	0.2146	0.18718	0.12
C 	C 	0.80092	0.16172	0.16349	-0.124
C 	C 	0.69916	0.99586	0.18925	0.094
C 	C 	0.69767	0.01657	0.15309	-0.138
C 	C 	0.6919	0.9646	0.12577	0.013
C 	C 	0.6884	0.8917	0.13344	-0.264
C 	C 	0.6966	0.8727	0.1699	0.01
C 	C 	0.7023	0.9237	0.19739	-0.117
C 	C 	0.91904	0.95554	0.24941	0.2
C 	C 	0.81577	0.95037	0.26306	-0.12
C 	C 	0.7993	0.9842	0.29586	0.123
C 	C 	0.8843	0.0223	0.3159	-0.296
C 	C 	0.9869	0.0274	0.30155	0.141
C 	C 	0.00474	0.99434	0.26951	-0.135
C 	C 	0.13204	0.10014	0.20577	0.086
C 	C 	0.15985	0.03385	0.2142	-0.155
C 	C 	0.2161	0.0002	0.18938	-0.008
C 	C 	0.2463	0.03	0.15539	-0.269
C 	C 	0.2112	0.0944	0.14654	0
C 	C 	0.15501	0.12921	0.17105	-0.141
C 	C 	0.9322	0.1156	0.09703	-0.18
C 	C 	0.9526	0.0519	0.07595	0.448
C 	C 	0.5926	0.0571	0.22361	-0.163
C 	C 	0.5881	0.1082	0.25526	0.373
C 	C 	0.94529	0.85019	0.21862	-0.195
C 	C 	0.9736	0.8236	0.18208	0.459
C 	C 	0.1233	0.1965	0.24855	-0.155
C 	C 	0.21554	0.18834	0.27295	0.362
C 	C 	0.8371	0.3187	0.23279	0.742
C 	C 	0.7177	0.3121	0.2393	-1.026
C 	C 	0.8857	0.3962	0.22211	-1.039
C 	C 	0.8903	0.302	0.26792	-0.995
C 	C 	0.6779	0.8346	0.10322	0.566
C 	C 	0.7699	0.856	0.0757	-0.788
C 	C 	0.5699	0.8401	0.0802	-0.744
C 	C 	0.6685	0.7598	0.1149	-0.947
C 	C 	0.8696	0.0629	0.35123	0.724
C 	C 	0.7572	0.038	0.36619	-1.014
C 	C 	0.8863	0.1437	0.34196	-0.981
C 	C 	0.9508	0.0517	0.37944	-0.982
C 	C 	0.3068	0.9913	0.12801	0.6
C 	C 	0.403	0.0453	0.11317	-0.895
C 	C 	0.3463	0.9277	0.14473	-0.868
C 	C 	0.2299	0.9632	0.09676	-0.778
C 	C 	0.651	0.9451	0.98911	-0.244
C 	C 	0.7561	0.9764	0.99574	0.121
C 	C 	0.8166	0.8776	0.97524	0.101
C 	C 	0.7165	0.8422	0.96729	-0.236
C 	C 	0.6286	0.8749	0.97434	0.191
C 	C 	0.4316	0.8516	0.97609	0.218
C 	C 	0.332	0.8008	0.96371	-0.083
C 	C 	0.2356	0.8102	0.9779	0.002
C 	C 	0.1412	0.7652	0.96833	-0.084
C 	C 	0.1409	0.7109	0.94359	-0
C 	C 	0.2385	0.7	0.92863	-0.082
C 	C 	0.3317	0.7453	0.93867	0.008
C 	C 	0.2446	0.6411	0.90242	0.224
C 	C 	0.1445	0.5304	0.87309	0.208
C 	C 	0.2285	0.5017	0.8599	-0.242
C 	C 	0.2073	0.442	0.8376	0.116
C 	C 	0.0283	0.4392	0.8396	0.085
C 	C 	0.0421	0.4973	0.86296	-0.25
C 	C 	0.59407	0.34287	0.65612	0.194
C 	C 	0.51078	0.29108	0.67062	-0.125
C 	C 	0.53502	0.23772	0.69386	0.107
C 	C 	0.64023	0.23493	0.70352	-0.284
C 	C 	0.7213	0.2854	0.68718	0.114
C 	C 	0.69908	0.33828	0.66349	-0.121
C 	C 	0.80084	0.50414	0.68925	0.082
C 	C 	0.80233	0.48343	0.65309	-0.125
C 	C 	0.8081	0.5354	0.62577	0.004
C 	C 	0.8116	0.6083	0.63344	-0.26
C 	C 	0.8034	0.6273	0.6699	0.008
C 	C 	0.7977	0.5763	0.69739	-0.112
C 	C 	0.58096	0.54446	0.74941	0.189
C 	C 	0.68423	0.54963	0.76306	-0.113
C 	C 	0.7007	0.5158	0.79586	0.111
C 	C 	0.6157	0.4777	0.8159	-0.281
C 	C 	0.5131	0.4726	0.80155	0.107
C 	C 	0.49526	0.50566	0.76951	-0.119
C 	C 	0.36796	0.39986	0.70577	0.085
C 	C 	0.34015	0.46615	0.7142	-0.145
C 	C 	0.2839	0.4998	0.68938	0.002
C 	C 	0.2537	0.47	0.65539	-0.26
C 	C 	0.2888	0.4056	0.64654	-0.003
C 	C 	0.34499	0.37079	0.67105	-0.137
C 	C 	0.5678	0.3844	0.59703	-0.18
C 	C 	0.5474	0.4481	0.57595	0.448
C 	C 	0.9074	0.4429	0.72361	-0.168
C 	C 	0.9119	0.3918	0.75526	0.375
C 	C 	0.55471	0.64981	0.71862	-0.205
C 	C 	0.5264	0.6764	0.68208	0.461
C 	C 	0.3767	0.3035	0.74855	-0.159
C 	C 	0.28446	0.31166	0.77295	0.365
C 	C 	0.6629	0.1813	0.73279	0.73
C 	C 	0.7823	0.1879	0.7393	-1.019
C 	C 	0.6143	0.1038	0.72211	-1.022
C 	C 	0.6097	0.198	0.76792	-0.982
C 	C 	0.8221	0.6654	0.60322	0.573
C 	C 	0.7301	0.644	0.5757	-0.795
C 	C 	0.9301	0.6599	0.5802	-0.755
C 	C 	0.8315	0.7402	0.6149	-0.957
C 	C 	0.6304	0.4371	0.85123	0.724
C 	C 	0.7428	0.462	0.86619	-1.007
C 	C 	0.6137	0.3563	0.84196	-0.979
C 	C 	0.5492	0.4483	0.87944	-1.013
C 	C 	0.1932	0.5087	0.62801	0.583
C 	C 	0.097	0.4547	0.61317	-0.868
C 	C 	0.1537	0.5723	0.64473	-0.852
C 	C 	0.2701	0.5368	0.59676	-0.799
C 	C 	0.849	0.5549	0.48911	-0.233
C 	C 	0.7439	0.5236	0.49574	0.097
C 	C 	0.6834	0.6224	0.47524	0.098
C 	C 	0.7835	0.6578	0.46729	-0.233
C 	C 	0.8714	0.6251	0.47434	0.185
C 	C 	0.0684	0.6484	0.47609	0.212
C 	C 	0.168	0.6992	0.46371	-0.083
C 	C 	0.2644	0.6898	0.4779	0.001
C 	C 	0.3588	0.7348	0.46833	-0.084
C 	C 	0.3591	0.7891	0.44359	0
C 	C 	0.2615	0.8	0.42863	-0.082
C 	C 	0.1683	0.7547	0.43867	0.007
C 	C 	0.2554	0.8589	0.40242	0.225
C 	C 	0.3555	0.9696	0.37309	0.215
C 	C 	0.2715	0.9983	0.3599	-0.23
C 	C 	0.2927	0.058	0.3376	0.102
C 	C 	0.4717	0.0608	0.3396	0.11
C 	C 	0.4579	0.0027	0.36296	-0.262
S 	S 	0.30809	0.89318	0.86006	0.001
S 	S 	0.29801	0.10617	0.75708	-0.02
S 	S 	0.85981	0.00509	0.74212	-0.015
S 	S 	0.87548	0.7864	0.84267	0.021
S 	S 	0.19191	0.60682	0.36006	0.005
S 	S 	0.20199	0.39383	0.25708	-0.009
S 	S 	0.64019	0.49491	0.24212	-0.001
S 	S 	0.62452	0.7136	0.34267	0.015
S 	S 	0.69191	0.10682	0.13994	0.01
S 	S 	0.70199	0.89383	0.24292	-0.002
S 	S 	0.14019	0.99491	0.25788	0.015
S 	S 	0.12452	0.2136	0.15733	0.005
S 	S 	0.80809	0.39318	0.63994	0.012
S 	S 	0.79801	0.60617	0.74292	-0.003
S 	S 	0.35981	0.50509	0.75788	-0.001
S 	S 	0.37548	0.2864	0.65733	0.013
N 	N 	0.16008	0.05468	0.01067	-0.269
N 	N 	0.4724	0.1635	0.0346	-0.254
N 	N 	0.8445	0.4099	0.10379	-0.255
N 	N 	0.88976	0.58966	0.17335	-0.274
N 	N 	0.33992	0.44532	0.51067	-0.272
N 	N 	0.0276	0.3365	0.5346	-0.261
N 	N 	0.6555	0.0901	0.60379	-0.253
N 	N 	0.61024	0.91034	0.67335	-0.272
N 	N 	0.83992	0.94532	0.98933	-0.271
N 	N 	0.5276	0.8365	0.9654	-0.257
N 	N 	0.1555	0.5901	0.89621	-0.257
N 	N 	0.11024	0.41034	0.82665	-0.274
N 	N 	0.66008	0.55468	0.48933	-0.272
N 	N 	0.9724	0.6635	0.4654	-0.252
N 	N 	0.3445	0.9099	0.39621	-0.259
N 	N 	0.38976	0.08966	0.32665	-0.275
O 	O 	0.07042	0.89962	0.86456	-0.469
O 	O 	0.05135	0.94025	0.9579	-0.484
O 	O 	0.02726	0.00226	0.90784	-0.721
O 	O 	0.30161	0.95491	0.78277	-0.163
O 	O 	0.49373	0.86253	0.74734	-0.475
O 	O 	0.3457	0.8835	0.72058	-0.333
O 	O 	0.06313	0.07403	0.78393	-0.448
O 	O 	0.02355	0.24405	0.81892	-0.511
O 	O 	0.00581	0.13461	0.84371	-0.71
O 	O 	0.92604	0.87014	0.76918	-0.189
O 	O 	0.70051	0.82161	0.74285	-0.444
O 	O 	0.79389	0.80739	0.69397	-0.362
O 	O 	0.5728	0.098	0.00313	-0.268
O 	O 	0.6694	0.3618	0.11265	-0.256
O 	O 	0.42958	0.60038	0.36456	-0.479
O 	O 	0.44865	0.55975	0.4579	-0.485
O 	O 	0.47274	0.49774	0.40784	-0.711
O 	O 	0.19839	0.54509	0.28277	-0.18
O 	O 	0.00627	0.63747	0.24734	-0.478
O 	O 	0.1543	0.6165	0.22058	-0.335
O 	O 	0.43687	0.42597	0.28393	-0.464
O 	O 	0.47645	0.25595	0.31892	-0.503
O 	O 	0.49419	0.36539	0.34371	-0.709
O 	O 	0.57396	0.62986	0.26918	-0.195
O 	O 	0.79949	0.67839	0.24285	-0.443
O 	O 	0.70611	0.69261	0.19397	-0.363
O 	O 	0.9272	0.402	0.50313	-0.263
O 	O 	0.8306	0.1382	0.61265	-0.253
O 	O 	0.92958	0.10038	0.13544	-0.48
O 	O 	0.94865	0.05975	0.0421	-0.479
O 	O 	0.97274	0.99774	0.09216	-0.709
O 	O 	0.69839	0.04509	0.21723	-0.185
O 	O 	0.50627	0.13747	0.25266	-0.475
O 	O 	0.6543	0.1165	0.27942	-0.335
O 	O 	0.93687	0.92597	0.21607	-0.468
O 	O 	0.97645	0.75595	0.18108	-0.5
O 	O 	0.99419	0.86539	0.15629	-0.709
O 	O 	0.07396	0.12986	0.23082	-0.202
O 	O 	0.29949	0.17839	0.25715	-0.444
O 	O 	0.20611	0.19261	0.30603	-0.364
O 	O 	0.4272	0.902	0.99687	-0.26
O 	O 	0.3306	0.6382	0.88735	-0.256
O 	O 	0.57042	0.39962	0.63544	-0.479
O 	O 	0.55135	0.44025	0.5421	-0.485
O 	O 	0.52726	0.50226	0.59216	-0.711
O 	O 	0.80161	0.45491	0.71723	-0.179
O 	O 	0.99373	0.36253	0.75266	-0.467
O 	O 	0.8457	0.3835	0.77942	-0.333
O 	O 	0.56313	0.57403	0.71607	-0.464
O 	O 	0.52355	0.74405	0.68108	-0.503
O 	O 	0.50581	0.63461	0.65629	-0.709
O 	O 	0.42604	0.37014	0.73082	-0.195
O 	O 	0.20051	0.32161	0.75715	-0.447
O 	O 	0.29389	0.30739	0.80603	-0.363
O 	O 	0.0728	0.598	0.49687	-0.266
O 	O 	0.1694	0.8618	0.38735	-0.257
_end
