data_functionalizedCrystal
_audit_creation_method	'EQeq! by Chris Wilmer'
_symmetry_space_group_name_H-M	'P1'
_symmetry_Int_Tables_number	1
_symmetry_cell_setting	triclinic
loop_
_symmetry_equiv_pos_as_xyz
  x,y,z
_cell_length_a	48.3033
_cell_length_b	48.3033
_cell_length_c	48.3033
_cell_angle_alpha	60
_cell_angle_beta	60
_cell_angle_gamma	60
loop_
_atom_site_label
_atom_site_type_symbol
_atom_site_fract_x
_atom_site_fract_y
_atom_site_fract_z
_atom_site_charge
Cu	Cu	0.5	0.02728	0.97272	0.918
Cu	Cu	0.02728	0.5	0.5	0.918
Cu	Cu	0.97272	0.5	0.5	0.918
Cu	Cu	0.5	0.97272	0.02728	0.918
Cu	Cu	0.5	0.97272	0.5	0.918
Cu	Cu	0.02728	0.5	0.97272	0.918
Cu	Cu	0.97272	0.5	0.02728	0.918
Cu	Cu	0.5	0.02728	0.5	0.918
Cu	Cu	0.5	0.5	0.02728	0.918
Cu	Cu	0.02728	0.97272	0.5	0.918
Cu	Cu	0.97272	0.02728	0.5	0.918
Cu	Cu	0.5	0.5	0.97272	0.918
H 	H 	0.5245	0.1627	0.0781	0.046
H 	H 	0.5204	0.1358	0.0512	0.049
H 	H 	0.5231	0.1123	0.0273	0.062
H 	H 	0.5149	0.0869	0.0019	0.044
H 	H 	0.1627	0.5245	0.2347	0.046
H 	H 	0.1358	0.5204	0.2926	0.049
H 	H 	0.1123	0.5231	0.3373	0.062
H 	H 	0.0869	0.5149	0.3963	0.044
H 	H 	0.0781	0.2347	0.5245	0.046
H 	H 	0.0512	0.2926	0.5204	0.049
H 	H 	0.0273	0.3373	0.5231	0.062
H 	H 	0.0019	0.3963	0.5149	0.044
H 	H 	0.2347	0.0781	0.1627	0.046
H 	H 	0.2926	0.0512	0.1358	0.049
H 	H 	0.3373	0.0273	0.1123	0.062
H 	H 	0.3963	0.0019	0.0869	0.044
H 	H 	0.5245	0.0781	0.2347	0.046
H 	H 	0.5204	0.0512	0.2926	0.049
H 	H 	0.5231	0.0273	0.3373	0.062
H 	H 	0.5149	0.0019	0.3963	0.044
H 	H 	0.1627	0.2347	0.0781	0.046
H 	H 	0.1358	0.2926	0.0512	0.049
H 	H 	0.1123	0.3373	0.0273	0.062
H 	H 	0.0869	0.3963	0.0019	0.044
H 	H 	0.0781	0.5245	0.1627	0.046
H 	H 	0.0512	0.5204	0.1358	0.049
H 	H 	0.0273	0.5231	0.1123	0.062
H 	H 	0.0019	0.5149	0.0869	0.044
H 	H 	0.2347	0.1627	0.5245	0.046
H 	H 	0.2926	0.1358	0.5204	0.049
H 	H 	0.3373	0.1123	0.5231	0.062
H 	H 	0.3963	0.0869	0.5149	0.044
H 	H 	0.5245	0.2347	0.1627	0.046
H 	H 	0.5204	0.2926	0.1358	0.049
H 	H 	0.5231	0.3373	0.1123	0.062
H 	H 	0.5149	0.3963	0.0869	0.044
H 	H 	0.1627	0.0781	0.5245	0.046
H 	H 	0.1358	0.0512	0.5204	0.049
H 	H 	0.1123	0.0273	0.5231	0.062
H 	H 	0.0869	0.0019	0.5149	0.044
H 	H 	0.0781	0.1627	0.2347	0.046
H 	H 	0.0512	0.1358	0.2926	0.049
H 	H 	0.0273	0.1123	0.3373	0.062
H 	H 	0.0019	0.0869	0.3963	0.044
H 	H 	0.2347	0.5245	0.0781	0.046
H 	H 	0.2926	0.5204	0.0512	0.049
H 	H 	0.3373	0.5231	0.0273	0.062
H 	H 	0.3963	0.5149	0.0019	0.044
H 	H 	0.8373	0.4755	0.9219	0.046
H 	H 	0.8642	0.4796	0.9488	0.049
H 	H 	0.8877	0.4769	0.9727	0.062
H 	H 	0.9131	0.4851	0.9981	0.044
H 	H 	0.4755	0.8373	0.7653	0.046
H 	H 	0.4796	0.8642	0.7074	0.049
H 	H 	0.4769	0.8877	0.6627	0.062
H 	H 	0.4851	0.9131	0.6037	0.044
H 	H 	0.7653	0.9219	0.4755	0.046
H 	H 	0.7074	0.9488	0.4796	0.049
H 	H 	0.6627	0.9727	0.4769	0.062
H 	H 	0.6037	0.9981	0.4851	0.044
H 	H 	0.9219	0.7653	0.8373	0.046
H 	H 	0.9488	0.7074	0.8642	0.049
H 	H 	0.9727	0.6627	0.8877	0.062
H 	H 	0.9981	0.6037	0.9131	0.044
H 	H 	0.9219	0.4755	0.7653	0.046
H 	H 	0.9488	0.4796	0.7074	0.049
H 	H 	0.9727	0.4769	0.6627	0.062
H 	H 	0.9981	0.4851	0.6037	0.044
H 	H 	0.7653	0.8373	0.9219	0.046
H 	H 	0.7074	0.8642	0.9488	0.049
H 	H 	0.6627	0.8877	0.9727	0.062
H 	H 	0.6037	0.9131	0.9981	0.044
H 	H 	0.4755	0.9219	0.8373	0.045
H 	H 	0.4796	0.9488	0.8642	0.048
H 	H 	0.4769	0.9727	0.8877	0.061
H 	H 	0.4851	0.9981	0.9131	0.043
H 	H 	0.8373	0.7653	0.4755	0.045
H 	H 	0.8642	0.7074	0.4796	0.048
H 	H 	0.8877	0.6627	0.4769	0.061
H 	H 	0.9131	0.6037	0.4851	0.043
H 	H 	0.7653	0.4755	0.8373	0.045
H 	H 	0.7074	0.4796	0.8642	0.048
H 	H 	0.6627	0.4769	0.8877	0.061
H 	H 	0.6037	0.4851	0.9131	0.043
H 	H 	0.9219	0.8373	0.4755	0.045
H 	H 	0.9488	0.8642	0.4796	0.048
H 	H 	0.9727	0.8877	0.4769	0.061
H 	H 	0.9981	0.9131	0.4851	0.043
H 	H 	0.8373	0.9219	0.7653	0.045
H 	H 	0.8642	0.9488	0.7074	0.048
H 	H 	0.8877	0.9727	0.6627	0.061
H 	H 	0.9131	0.9981	0.6037	0.043
H 	H 	0.4755	0.7653	0.9219	0.045
H 	H 	0.4796	0.7074	0.9488	0.048
H 	H 	0.4769	0.6627	0.9727	0.061
H 	H 	0.4851	0.6037	0.9981	0.043
H 	H 	0.4755	0.8373	0.9219	0.045
H 	H 	0.4796	0.8642	0.9488	0.048
H 	H 	0.4769	0.8877	0.9727	0.061
H 	H 	0.4851	0.9131	0.9981	0.043
H 	H 	0.8373	0.4755	0.7653	0.045
H 	H 	0.8642	0.4796	0.7074	0.048
H 	H 	0.8877	0.4769	0.6627	0.061
H 	H 	0.9131	0.4851	0.6037	0.043
H 	H 	0.9219	0.7653	0.4755	0.045
H 	H 	0.9488	0.7074	0.4796	0.048
H 	H 	0.9727	0.6627	0.4769	0.061
H 	H 	0.9981	0.6037	0.4851	0.043
H 	H 	0.7653	0.9219	0.8373	0.045
H 	H 	0.7074	0.9488	0.8642	0.048
H 	H 	0.6627	0.9727	0.8877	0.061
H 	H 	0.6037	0.9981	0.9131	0.043
H 	H 	0.4755	0.9219	0.7653	0.045
H 	H 	0.4796	0.9488	0.7074	0.048
H 	H 	0.4769	0.9727	0.6627	0.061
H 	H 	0.4851	0.9981	0.6037	0.043
H 	H 	0.8373	0.7653	0.9219	0.045
H 	H 	0.8642	0.7074	0.9488	0.048
H 	H 	0.8877	0.6627	0.9727	0.061
H 	H 	0.9131	0.6037	0.9981	0.043
H 	H 	0.9219	0.4755	0.8373	0.045
H 	H 	0.9488	0.4796	0.8642	0.048
H 	H 	0.9727	0.4769	0.8877	0.061
H 	H 	0.9981	0.4851	0.9131	0.043
H 	H 	0.7653	0.8373	0.4755	0.045
H 	H 	0.7074	0.8642	0.4796	0.048
H 	H 	0.6627	0.8877	0.4769	0.061
H 	H 	0.6037	0.9131	0.4851	0.043
H 	H 	0.4755	0.7653	0.8373	0.045
H 	H 	0.4796	0.7074	0.8642	0.048
H 	H 	0.4769	0.6627	0.8877	0.061
H 	H 	0.4851	0.6037	0.9131	0.043
H 	H 	0.8373	0.9219	0.4755	0.045
H 	H 	0.8642	0.9488	0.4796	0.048
H 	H 	0.8877	0.9727	0.4769	0.061
H 	H 	0.9131	0.9981	0.4851	0.043
H 	H 	0.9219	0.8373	0.7653	0.045
H 	H 	0.9488	0.8642	0.7074	0.048
H 	H 	0.9727	0.8877	0.6627	0.061
H 	H 	0.9981	0.9131	0.6037	0.043
H 	H 	0.7653	0.4755	0.9219	0.045
H 	H 	0.7074	0.4796	0.9488	0.048
H 	H 	0.6627	0.4769	0.9727	0.061
H 	H 	0.6037	0.4851	0.9981	0.043
H 	H 	0.1627	0.5245	0.0781	0.045
H 	H 	0.1358	0.5204	0.0512	0.048
H 	H 	0.1123	0.5231	0.0273	0.061
H 	H 	0.0869	0.5149	0.0019	0.043
H 	H 	0.5245	0.1627	0.2347	0.045
H 	H 	0.5204	0.1358	0.2926	0.048
H 	H 	0.5231	0.1123	0.3373	0.061
H 	H 	0.5149	0.0869	0.3963	0.043
H 	H 	0.2347	0.0781	0.5245	0.045
H 	H 	0.2926	0.0512	0.5204	0.048
H 	H 	0.3373	0.0273	0.5231	0.061
H 	H 	0.3963	0.0019	0.5149	0.043
H 	H 	0.0781	0.2347	0.1627	0.045
H 	H 	0.0512	0.2926	0.1358	0.048
H 	H 	0.0273	0.3373	0.1123	0.061
H 	H 	0.0019	0.3963	0.0869	0.043
H 	H 	0.0781	0.5245	0.2347	0.045
H 	H 	0.0512	0.5204	0.2926	0.048
H 	H 	0.0273	0.5231	0.3373	0.061
H 	H 	0.0019	0.5149	0.3963	0.043
H 	H 	0.2347	0.1627	0.0781	0.045
H 	H 	0.2926	0.1358	0.0512	0.048
H 	H 	0.3373	0.1123	0.0273	0.061
H 	H 	0.3963	0.0869	0.0019	0.043
H 	H 	0.5245	0.0781	0.1627	0.045
H 	H 	0.5204	0.0512	0.1358	0.048
H 	H 	0.5231	0.0273	0.1123	0.061
H 	H 	0.5149	0.0019	0.0869	0.043
H 	H 	0.1627	0.2347	0.5245	0.045
H 	H 	0.1358	0.2926	0.5204	0.048
H 	H 	0.1123	0.3373	0.5231	0.061
H 	H 	0.0869	0.3963	0.5149	0.043
H 	H 	0.2347	0.5245	0.1627	0.045
H 	H 	0.2926	0.5204	0.1358	0.048
H 	H 	0.3373	0.5231	0.1123	0.061
H 	H 	0.3963	0.5149	0.0869	0.043
H 	H 	0.0781	0.1627	0.5245	0.045
H 	H 	0.0512	0.1358	0.5204	0.048
H 	H 	0.0273	0.1123	0.5231	0.061
H 	H 	0.0019	0.0869	0.5149	0.043
H 	H 	0.1627	0.0781	0.2347	0.045
H 	H 	0.1358	0.0512	0.2926	0.048
H 	H 	0.1123	0.0273	0.3373	0.061
H 	H 	0.0869	0.0019	0.3963	0.043
H 	H 	0.5245	0.2347	0.0781	0.045
H 	H 	0.5204	0.2926	0.0512	0.048
H 	H 	0.5231	0.3373	0.0273	0.061
H 	H 	0.5149	0.3963	0.0019	0.043
H 	H 	0.5316	0.1844	0.0996	0.068
H 	H 	0.1844	0.5316	0.1844	0.068
H 	H 	0.0996	0.1844	0.5316	0.068
H 	H 	0.1844	0.0996	0.1844	0.068
H 	H 	0.5316	0.0996	0.1844	0.068
H 	H 	0.1844	0.1844	0.0996	0.068
H 	H 	0.0996	0.5316	0.1844	0.068
H 	H 	0.1844	0.1844	0.5316	0.068
H 	H 	0.5316	0.1844	0.1844	0.068
H 	H 	0.1844	0.0996	0.5316	0.068
H 	H 	0.0996	0.1844	0.1844	0.068
H 	H 	0.1844	0.5316	0.0996	0.068
H 	H 	0.8156	0.4684	0.9004	0.068
H 	H 	0.4684	0.8156	0.8156	0.068
H 	H 	0.8156	0.9004	0.4684	0.068
H 	H 	0.9004	0.8156	0.8156	0.068
H 	H 	0.9004	0.4684	0.8156	0.068
H 	H 	0.8156	0.8156	0.9004	0.068
H 	H 	0.4684	0.9004	0.8156	0.068
H 	H 	0.8156	0.8156	0.4684	0.068
H 	H 	0.8156	0.4684	0.8156	0.068
H 	H 	0.9004	0.8156	0.4684	0.068
H 	H 	0.8156	0.9004	0.8156	0.068
H 	H 	0.4684	0.8156	0.9004	0.068
C 	C 	0.52445	0.14055	0.08897	-0.047
C 	C 	0.52266	0.12428	0.07252	-0.054
C 	C 	0.52188	0.09044	0.03856	-0.09
C 	C 	0.51745	0.07497	0.02309	0.011
C 	C 	0.14055	0.52445	0.24603	-0.047
C 	C 	0.12428	0.52266	0.28054	-0.054
C 	C 	0.09044	0.52188	0.34912	-0.09
C 	C 	0.07497	0.51745	0.38449	0.011
C 	C 	0.08897	0.24603	0.52445	-0.047
C 	C 	0.07252	0.28054	0.52266	-0.054
C 	C 	0.03856	0.34912	0.52188	-0.09
C 	C 	0.02309	0.38449	0.51745	0.011
C 	C 	0.24603	0.08897	0.14055	-0.047
C 	C 	0.28054	0.07252	0.12428	-0.054
C 	C 	0.34912	0.03856	0.09044	-0.09
C 	C 	0.38449	0.02309	0.07497	0.011
C 	C 	0.52445	0.08897	0.24603	-0.047
C 	C 	0.52266	0.07252	0.28054	-0.054
C 	C 	0.52188	0.03856	0.34912	-0.09
C 	C 	0.51745	0.02309	0.38449	0.011
C 	C 	0.14055	0.24603	0.08897	-0.047
C 	C 	0.12428	0.28054	0.07252	-0.054
C 	C 	0.09044	0.34912	0.03856	-0.09
C 	C 	0.07497	0.38449	0.02309	0.011
C 	C 	0.08897	0.52445	0.14055	-0.047
C 	C 	0.07252	0.52266	0.12428	-0.054
C 	C 	0.03856	0.52188	0.09044	-0.09
C 	C 	0.02309	0.51745	0.07497	0.011
C 	C 	0.24603	0.14055	0.52445	-0.047
C 	C 	0.28054	0.12428	0.52266	-0.054
C 	C 	0.34912	0.09044	0.52188	-0.09
C 	C 	0.38449	0.07497	0.51745	0.011
C 	C 	0.52445	0.24603	0.14055	-0.047
C 	C 	0.52266	0.28054	0.12428	-0.054
C 	C 	0.52188	0.34912	0.09044	-0.09
C 	C 	0.51745	0.38449	0.07497	0.011
C 	C 	0.14055	0.08897	0.52445	-0.047
C 	C 	0.12428	0.07252	0.52266	-0.054
C 	C 	0.09044	0.03856	0.52188	-0.09
C 	C 	0.07497	0.02309	0.51745	0.011
C 	C 	0.08897	0.14055	0.24603	-0.047
C 	C 	0.07252	0.12428	0.28054	-0.054
C 	C 	0.03856	0.09044	0.34912	-0.09
C 	C 	0.02309	0.07497	0.38449	0.011
C 	C 	0.24603	0.52445	0.08897	-0.047
C 	C 	0.28054	0.52266	0.07252	-0.054
C 	C 	0.34912	0.52188	0.03856	-0.09
C 	C 	0.38449	0.51745	0.02309	0.011
C 	C 	0.85945	0.47555	0.91103	-0.047
C 	C 	0.87572	0.47734	0.92748	-0.054
C 	C 	0.90956	0.47812	0.96144	-0.09
C 	C 	0.92503	0.48255	0.97691	0.011
C 	C 	0.47555	0.85945	0.75397	-0.047
C 	C 	0.47734	0.87572	0.71946	-0.054
C 	C 	0.47812	0.90956	0.65088	-0.09
C 	C 	0.48255	0.92503	0.61551	0.011
C 	C 	0.75397	0.91103	0.47555	-0.047
C 	C 	0.71946	0.92748	0.47734	-0.054
C 	C 	0.65088	0.96144	0.47812	-0.09
C 	C 	0.61551	0.97691	0.48255	0.011
C 	C 	0.91103	0.75397	0.85945	-0.047
C 	C 	0.92748	0.71946	0.87572	-0.054
C 	C 	0.96144	0.65088	0.90956	-0.09
C 	C 	0.97691	0.61551	0.92503	0.011
C 	C 	0.91103	0.47555	0.75397	-0.047
C 	C 	0.92748	0.47734	0.71946	-0.054
C 	C 	0.96144	0.47812	0.65088	-0.09
C 	C 	0.97691	0.48255	0.61551	0.011
C 	C 	0.75397	0.85945	0.91103	-0.047
C 	C 	0.71946	0.87572	0.92748	-0.054
C 	C 	0.65088	0.90956	0.96144	-0.09
C 	C 	0.61551	0.92503	0.97691	0.011
C 	C 	0.47555	0.91103	0.85945	-0.047
C 	C 	0.47734	0.92748	0.87572	-0.054
C 	C 	0.47812	0.96144	0.90956	-0.09
C 	C 	0.48255	0.97691	0.92503	0.011
C 	C 	0.85945	0.75397	0.47555	-0.047
C 	C 	0.87572	0.71946	0.47734	-0.054
C 	C 	0.90956	0.65088	0.47812	-0.09
C 	C 	0.92503	0.61551	0.48255	0.011
C 	C 	0.75397	0.47555	0.85945	-0.047
C 	C 	0.71946	0.47734	0.87572	-0.054
C 	C 	0.65088	0.47812	0.90956	-0.09
C 	C 	0.61551	0.48255	0.92503	0.011
C 	C 	0.91103	0.85945	0.47555	-0.047
C 	C 	0.92748	0.87572	0.47734	-0.054
C 	C 	0.96144	0.90956	0.47812	-0.09
C 	C 	0.97691	0.92503	0.48255	0.011
C 	C 	0.85945	0.91103	0.75397	-0.047
C 	C 	0.87572	0.92748	0.71946	-0.054
C 	C 	0.90956	0.96144	0.65088	-0.09
C 	C 	0.92503	0.97691	0.61551	0.011
C 	C 	0.47555	0.75397	0.91103	-0.047
C 	C 	0.47734	0.71946	0.92748	-0.054
C 	C 	0.47812	0.65088	0.96144	-0.09
C 	C 	0.48255	0.61551	0.97691	0.011
C 	C 	0.47555	0.85945	0.91103	-0.047
C 	C 	0.47734	0.87572	0.92748	-0.054
C 	C 	0.47812	0.90956	0.96144	-0.09
C 	C 	0.48255	0.92503	0.97691	0.011
C 	C 	0.85945	0.47555	0.75397	-0.047
C 	C 	0.87572	0.47734	0.71946	-0.054
C 	C 	0.90956	0.47812	0.65088	-0.09
C 	C 	0.92503	0.48255	0.61551	0.011
C 	C 	0.91103	0.75397	0.47555	-0.047
C 	C 	0.92748	0.71946	0.47734	-0.054
C 	C 	0.96144	0.65088	0.47812	-0.09
C 	C 	0.97691	0.61551	0.48255	0.011
C 	C 	0.75397	0.91103	0.85945	-0.047
C 	C 	0.71946	0.92748	0.87572	-0.054
C 	C 	0.65088	0.96144	0.90956	-0.09
C 	C 	0.61551	0.97691	0.92503	0.011
C 	C 	0.47555	0.91103	0.75397	-0.047
C 	C 	0.47734	0.92748	0.71946	-0.054
C 	C 	0.47812	0.96144	0.65088	-0.09
C 	C 	0.48255	0.97691	0.61551	0.011
C 	C 	0.85945	0.75397	0.91103	-0.047
C 	C 	0.87572	0.71946	0.92748	-0.054
C 	C 	0.90956	0.65088	0.96144	-0.09
C 	C 	0.92503	0.61551	0.97691	0.011
C 	C 	0.91103	0.47555	0.85945	-0.047
C 	C 	0.92748	0.47734	0.87572	-0.054
C 	C 	0.96144	0.47812	0.90956	-0.09
C 	C 	0.97691	0.48255	0.92503	0.011
C 	C 	0.75397	0.85945	0.47555	-0.047
C 	C 	0.71946	0.87572	0.47734	-0.054
C 	C 	0.65088	0.90956	0.47812	-0.09
C 	C 	0.61551	0.92503	0.48255	0.011
C 	C 	0.47555	0.75397	0.85945	-0.047
C 	C 	0.47734	0.71946	0.87572	-0.054
C 	C 	0.47812	0.65088	0.90956	-0.09
C 	C 	0.48255	0.61551	0.92503	0.011
C 	C 	0.85945	0.91103	0.47555	-0.047
C 	C 	0.87572	0.92748	0.47734	-0.054
C 	C 	0.90956	0.96144	0.47812	-0.09
C 	C 	0.92503	0.97691	0.48255	0.011
C 	C 	0.91103	0.85945	0.75397	-0.047
C 	C 	0.92748	0.87572	0.71946	-0.054
C 	C 	0.96144	0.90956	0.65088	-0.09
C 	C 	0.97691	0.92503	0.61551	0.011
C 	C 	0.75397	0.47555	0.91103	-0.047
C 	C 	0.71946	0.47734	0.92748	-0.054
C 	C 	0.65088	0.47812	0.96144	-0.09
C 	C 	0.61551	0.48255	0.97691	0.011
C 	C 	0.14055	0.52445	0.08897	-0.047
C 	C 	0.12428	0.52266	0.07252	-0.054
C 	C 	0.09044	0.52188	0.03856	-0.09
C 	C 	0.07497	0.51745	0.02309	0.011
C 	C 	0.52445	0.14055	0.24603	-0.047
C 	C 	0.52266	0.12428	0.28054	-0.054
C 	C 	0.52188	0.09044	0.34912	-0.09
C 	C 	0.51745	0.07497	0.38449	0.011
C 	C 	0.24603	0.08897	0.52445	-0.047
C 	C 	0.28054	0.07252	0.52266	-0.054
C 	C 	0.34912	0.03856	0.52188	-0.09
C 	C 	0.38449	0.02309	0.51745	0.011
C 	C 	0.08897	0.24603	0.14055	-0.047
C 	C 	0.07252	0.28054	0.12428	-0.054
C 	C 	0.03856	0.34912	0.09044	-0.09
C 	C 	0.02309	0.38449	0.07497	0.011
C 	C 	0.08897	0.52445	0.24603	-0.047
C 	C 	0.07252	0.52266	0.28054	-0.054
C 	C 	0.03856	0.52188	0.34912	-0.09
C 	C 	0.02309	0.51745	0.38449	0.011
C 	C 	0.24603	0.14055	0.08897	-0.047
C 	C 	0.28054	0.12428	0.07252	-0.054
C 	C 	0.34912	0.09044	0.03856	-0.09
C 	C 	0.38449	0.07497	0.02309	0.011
C 	C 	0.52445	0.08897	0.14055	-0.047
C 	C 	0.52266	0.07252	0.12428	-0.054
C 	C 	0.52188	0.03856	0.09044	-0.09
C 	C 	0.51745	0.02309	0.07497	0.011
C 	C 	0.14055	0.24603	0.52445	-0.047
C 	C 	0.12428	0.28054	0.52266	-0.054
C 	C 	0.09044	0.34912	0.52188	-0.09
C 	C 	0.07497	0.38449	0.51745	0.011
C 	C 	0.24603	0.52445	0.14055	-0.047
C 	C 	0.28054	0.52266	0.12428	-0.054
C 	C 	0.34912	0.52188	0.09044	-0.09
C 	C 	0.38449	0.51745	0.07497	0.011
C 	C 	0.08897	0.14055	0.52445	-0.047
C 	C 	0.07252	0.12428	0.52266	-0.054
C 	C 	0.03856	0.09044	0.52188	-0.09
C 	C 	0.02309	0.07497	0.51745	0.011
C 	C 	0.14055	0.08897	0.24603	-0.047
C 	C 	0.12428	0.07252	0.28054	-0.054
C 	C 	0.09044	0.03856	0.34912	-0.09
C 	C 	0.07497	0.02309	0.38449	0.011
C 	C 	0.52445	0.24603	0.08897	-0.047
C 	C 	0.52266	0.28054	0.07252	-0.054
C 	C 	0.52188	0.34912	0.03856	-0.09
C 	C 	0.51745	0.38449	0.02309	0.011
C 	C 	0.53179	0.17323	0.12175	-0.113
C 	C 	0.17323	0.53179	0.17323	-0.113
C 	C 	0.12175	0.17323	0.53179	-0.113
C 	C 	0.17323	0.12175	0.17323	-0.113
C 	C 	0.53179	0.12175	0.17323	-0.113
C 	C 	0.17323	0.17323	0.12175	-0.113
C 	C 	0.12175	0.53179	0.17323	-0.113
C 	C 	0.17323	0.17323	0.53179	-0.113
C 	C 	0.53179	0.17323	0.17323	-0.113
C 	C 	0.17323	0.12175	0.53179	-0.113
C 	C 	0.12175	0.17323	0.17323	-0.113
C 	C 	0.17323	0.53179	0.12175	-0.113
C 	C 	0.82677	0.46821	0.87825	-0.113
C 	C 	0.46821	0.82677	0.82677	-0.113
C 	C 	0.82677	0.87825	0.46821	-0.113
C 	C 	0.87825	0.82677	0.82677	-0.113
C 	C 	0.87825	0.46821	0.82677	-0.113
C 	C 	0.82677	0.82677	0.87825	-0.113
C 	C 	0.46821	0.87825	0.82677	-0.113
C 	C 	0.82677	0.82677	0.46821	-0.113
C 	C 	0.82677	0.46821	0.82677	-0.113
C 	C 	0.87825	0.82677	0.46821	-0.113
C 	C 	0.82677	0.87825	0.82677	-0.113
C 	C 	0.46821	0.82677	0.87825	-0.113
C 	C 	0.532	0.1388	0.1388	0.052
C 	C 	0.5261	0.1225	0.1225	0.001
C 	C 	0.5244	0.0897	0.0897	0.009
C 	C 	0.52431	0.07159	0.07159	0.041
C 	C 	0.51702	0.0408	0.0408	-0.079
C 	C 	0.50972	0.0252	0.0252	0.367
C 	C 	0.1388	0.532	0.1904	0.052
C 	C 	0.1225	0.5261	0.2289	0.001
C 	C 	0.0897	0.5244	0.2962	0.009
C 	C 	0.07159	0.52431	0.33251	0.041
C 	C 	0.0408	0.51702	0.40138	-0.079
C 	C 	0.0252	0.50972	0.43988	0.367
C 	C 	0.1388	0.1904	0.532	0.052
C 	C 	0.1225	0.2289	0.5261	0.001
C 	C 	0.0897	0.2962	0.5244	0.009
C 	C 	0.07159	0.33251	0.52431	0.041
C 	C 	0.0408	0.40138	0.51702	-0.079
C 	C 	0.0252	0.43988	0.50972	0.367
C 	C 	0.1904	0.1388	0.1388	0.052
C 	C 	0.2289	0.1225	0.1225	0.001
C 	C 	0.2962	0.0897	0.0897	0.009
C 	C 	0.33251	0.07159	0.07159	0.041
C 	C 	0.40138	0.0408	0.0408	-0.079
C 	C 	0.43988	0.0252	0.0252	0.367
C 	C 	0.532	0.1388	0.1904	0.052
C 	C 	0.5261	0.1225	0.2289	0.001
C 	C 	0.5244	0.0897	0.2962	0.009
C 	C 	0.52431	0.07159	0.33251	0.041
C 	C 	0.51702	0.0408	0.40138	-0.079
C 	C 	0.50972	0.0252	0.43988	0.367
C 	C 	0.1388	0.1904	0.1388	0.052
C 	C 	0.1225	0.2289	0.1225	0.001
C 	C 	0.0897	0.2962	0.0897	0.009
C 	C 	0.07159	0.33251	0.07159	0.041
C 	C 	0.0408	0.40138	0.0408	-0.079
C 	C 	0.0252	0.43988	0.0252	0.367
C 	C 	0.1388	0.532	0.1388	0.052
C 	C 	0.1225	0.5261	0.1225	0.001
C 	C 	0.0897	0.5244	0.0897	0.009
C 	C 	0.07159	0.52431	0.07159	0.041
C 	C 	0.0408	0.51702	0.0408	-0.079
C 	C 	0.0252	0.50972	0.0252	0.367
C 	C 	0.1904	0.1388	0.532	0.052
C 	C 	0.2289	0.1225	0.5261	0.001
C 	C 	0.2962	0.0897	0.5244	0.009
C 	C 	0.33251	0.07159	0.52431	0.041
C 	C 	0.40138	0.0408	0.51702	-0.079
C 	C 	0.43988	0.0252	0.50972	0.367
C 	C 	0.532	0.1904	0.1388	0.052
C 	C 	0.5261	0.2289	0.1225	0.001
C 	C 	0.5244	0.2962	0.0897	0.009
C 	C 	0.52431	0.33251	0.07159	0.041
C 	C 	0.51702	0.40138	0.0408	-0.079
C 	C 	0.50972	0.43988	0.0252	0.367
C 	C 	0.1388	0.1388	0.532	0.052
C 	C 	0.1225	0.1225	0.5261	0.001
C 	C 	0.0897	0.0897	0.5244	0.009
C 	C 	0.07159	0.07159	0.52431	0.041
C 	C 	0.0408	0.0408	0.51702	-0.079
C 	C 	0.0252	0.0252	0.50972	0.367
C 	C 	0.1388	0.1388	0.1904	0.052
C 	C 	0.1225	0.1225	0.2289	0.001
C 	C 	0.0897	0.0897	0.2962	0.009
C 	C 	0.07159	0.07159	0.33251	0.041
C 	C 	0.0408	0.0408	0.40138	-0.079
C 	C 	0.0252	0.0252	0.43988	0.367
C 	C 	0.1904	0.532	0.1388	0.052
C 	C 	0.2289	0.5261	0.1225	0.001
C 	C 	0.2962	0.5244	0.0897	0.009
C 	C 	0.33251	0.52431	0.07159	0.041
C 	C 	0.40138	0.51702	0.0408	-0.079
C 	C 	0.43988	0.50972	0.0252	0.367
C 	C 	0.8612	0.468	0.8612	0.052
C 	C 	0.8775	0.4739	0.8775	0.001
C 	C 	0.9103	0.4756	0.9103	0.009
C 	C 	0.92841	0.47569	0.92841	0.041
C 	C 	0.9592	0.48298	0.9592	-0.079
C 	C 	0.9748	0.49028	0.9748	0.367
C 	C 	0.468	0.8612	0.8096	0.052
C 	C 	0.4739	0.8775	0.7711	0.001
C 	C 	0.4756	0.9103	0.7038	0.009
C 	C 	0.47569	0.92841	0.66749	0.041
C 	C 	0.48298	0.9592	0.59862	-0.079
C 	C 	0.49028	0.9748	0.56012	0.367
C 	C 	0.8096	0.8612	0.468	0.052
C 	C 	0.7711	0.8775	0.4739	0.001
C 	C 	0.7038	0.9103	0.4756	0.009
C 	C 	0.66749	0.92841	0.47569	0.041
C 	C 	0.59862	0.9592	0.48298	-0.079
C 	C 	0.56012	0.9748	0.49028	0.367
C 	C 	0.8612	0.8096	0.8612	0.052
C 	C 	0.8775	0.7711	0.8775	0.001
C 	C 	0.9103	0.7038	0.9103	0.009
C 	C 	0.92841	0.66749	0.92841	0.041
C 	C 	0.9592	0.59862	0.9592	-0.079
C 	C 	0.9748	0.56012	0.9748	0.367
C 	C 	0.8612	0.468	0.8096	0.052
C 	C 	0.8775	0.4739	0.7711	0.001
C 	C 	0.9103	0.4756	0.7038	0.009
C 	C 	0.92841	0.47569	0.66749	0.041
C 	C 	0.9592	0.48298	0.59862	-0.079
C 	C 	0.9748	0.49028	0.56012	0.367
C 	C 	0.8096	0.8612	0.8612	0.052
C 	C 	0.7711	0.8775	0.8775	0.001
C 	C 	0.7038	0.9103	0.9103	0.009
C 	C 	0.66749	0.92841	0.92841	0.041
C 	C 	0.59862	0.9592	0.9592	-0.079
C 	C 	0.56012	0.9748	0.9748	0.367
C 	C 	0.468	0.8612	0.8612	0.052
C 	C 	0.4739	0.8775	0.8775	0.001
C 	C 	0.4756	0.9103	0.9103	0.009
C 	C 	0.47569	0.92841	0.92841	0.041
C 	C 	0.48298	0.9592	0.9592	-0.079
C 	C 	0.49028	0.9748	0.9748	0.367
C 	C 	0.8612	0.8096	0.468	0.052
C 	C 	0.8775	0.7711	0.4739	0.001
C 	C 	0.9103	0.7038	0.4756	0.009
C 	C 	0.92841	0.66749	0.47569	0.041
C 	C 	0.9592	0.59862	0.48298	-0.079
C 	C 	0.9748	0.56012	0.49028	0.367
C 	C 	0.8096	0.468	0.8612	0.052
C 	C 	0.7711	0.4739	0.8775	0.001
C 	C 	0.7038	0.4756	0.9103	0.009
C 	C 	0.66749	0.47569	0.92841	0.041
C 	C 	0.59862	0.48298	0.9592	-0.079
C 	C 	0.56012	0.49028	0.9748	0.367
C 	C 	0.8612	0.8612	0.468	0.052
C 	C 	0.8775	0.8775	0.4739	0.001
C 	C 	0.9103	0.9103	0.4756	0.009
C 	C 	0.92841	0.92841	0.47569	0.041
C 	C 	0.9592	0.9592	0.48298	-0.079
C 	C 	0.9748	0.9748	0.49028	0.367
C 	C 	0.8612	0.8612	0.8096	0.052
C 	C 	0.8775	0.8775	0.7711	0.001
C 	C 	0.9103	0.9103	0.7038	0.009
C 	C 	0.92841	0.92841	0.66749	0.041
C 	C 	0.9592	0.9592	0.59862	-0.079
C 	C 	0.9748	0.9748	0.56012	0.367
C 	C 	0.468	0.8096	0.8612	0.052
C 	C 	0.4739	0.7711	0.8775	0.001
C 	C 	0.4756	0.7038	0.9103	0.009
C 	C 	0.47569	0.66749	0.92841	0.041
C 	C 	0.48298	0.59862	0.9592	-0.079
C 	C 	0.49028	0.56012	0.9748	0.367
O 	O 	0.50861	0.04285	0.99603	-0.421
O 	O 	0.04285	0.50861	0.45251	-0.421
O 	O 	0.99603	0.45251	0.50861	-0.421
O 	O 	0.45251	0.99603	0.04285	-0.421
O 	O 	0.50861	0.99603	0.45251	-0.421
O 	O 	0.04285	0.45251	0.99603	-0.421
O 	O 	0.99603	0.50861	0.04285	-0.421
O 	O 	0.45251	0.04285	0.50861	-0.421
O 	O 	0.50861	0.45251	0.04285	-0.421
O 	O 	0.04285	0.99603	0.50861	-0.421
O 	O 	0.99603	0.04285	0.45251	-0.421
O 	O 	0.45251	0.50861	0.99603	-0.421
O 	O 	0.95715	0.49139	0.00397	-0.421
O 	O 	0.49139	0.95715	0.54749	-0.421
O 	O 	0.54749	0.00397	0.49139	-0.421
O 	O 	0.00397	0.54749	0.95715	-0.421
O 	O 	0.00397	0.49139	0.54749	-0.421
O 	O 	0.54749	0.95715	0.00397	-0.421
O 	O 	0.49139	0.00397	0.95715	-0.421
O 	O 	0.95715	0.54749	0.49139	-0.421
O 	O 	0.54749	0.49139	0.95715	-0.421
O 	O 	0.00397	0.95715	0.49139	-0.421
O 	O 	0.95715	0.00397	0.54749	-0.421
O 	O 	0.49139	0.54749	0.00397	-0.421
O 	O 	0.49139	0.95715	0.00397	-0.421
O 	O 	0.95715	0.49139	0.54749	-0.421
O 	O 	0.00397	0.54749	0.49139	-0.421
O 	O 	0.54749	0.00397	0.95715	-0.421
O 	O 	0.49139	0.00397	0.54749	-0.421
O 	O 	0.95715	0.54749	0.00397	-0.421
O 	O 	0.00397	0.49139	0.95715	-0.421
O 	O 	0.54749	0.95715	0.49139	-0.421
O 	O 	0.49139	0.54749	0.95715	-0.421
O 	O 	0.95715	0.00397	0.49139	-0.421
O 	O 	0.00397	0.95715	0.54749	-0.421
O 	O 	0.54749	0.49139	0.00397	-0.421
O 	O 	0.04285	0.50861	0.99603	-0.421
O 	O 	0.50861	0.04285	0.45251	-0.421
O 	O 	0.45251	0.99603	0.50861	-0.421
O 	O 	0.99603	0.45251	0.04285	-0.421
O 	O 	0.99603	0.50861	0.45251	-0.421
O 	O 	0.45251	0.04285	0.99603	-0.421
O 	O 	0.50861	0.99603	0.04285	-0.421
O 	O 	0.04285	0.45251	0.50861	-0.421
O 	O 	0.45251	0.50861	0.04285	-0.421
O 	O 	0.99603	0.04285	0.50861	-0.421
O 	O 	0.04285	0.99603	0.45251	-0.421
O 	O 	0.50861	0.45251	0.99603	-0.421
_end
