data_functionalizedCrystal
_audit_creation_method	'EQeq! by Chris Wilmer'
_symmetry_space_group_name_H-M	'P1'
_symmetry_Int_Tables_number	1
_symmetry_cell_setting	triclinic
loop_
_symmetry_equiv_pos_as_xyz
  x,y,z
_cell_length_a	29.03
_cell_length_b	29.03
_cell_length_c	29.03
_cell_angle_alpha	90
_cell_angle_beta	90
_cell_angle_gamma	90
loop_
_atom_site_label
_atom_site_type_symbol
_atom_site_fract_x
_atom_site_fract_y
_atom_site_fract_z
_atom_site_charge
N 	N 	0.41998	0.04672	0.54607	-0.136
N 	N 	0.39669	0.08853	0.55031	-0.112
C 	C 	0.36407	0.17904	0.57732	-0.036
C 	C 	0.34837	0.22177	0.59283	-0.062
H 	H 	0.34678	0.16303	0.54838	-0.004
H 	H 	0.31959	0.23558	0.57408	-0.002
Cu	Cu	0.40181	-4.12733e-33	0.5	0.922
Cl	Cl	0.32443	-4.12733e-33	0.5	-0.615
Cl	Cl	0.5	-4.12733e-33	0.5	-0.497
Cu	Cu	0.21573	0.1346	0.5	0.578
C 	C 	0.41606	0.11077	0.58394	0.121
C 	C 	0.40088	0.15694	0.59912	-0.042
C 	C 	0.36889	0.24429	0.63111	-0.009
C 	C 	0.34955	0.28918	0.65045	0.007
C 	C 	0.3689	0.31025	0.68975	-0.076
H 	H 	0.39919	0.29584	0.70416	0.024
N 	N 	0.95328	0.41998	0.54607	-0.133
N 	N 	0.91147	0.39669	0.55031	-0.111
C 	C 	0.82096	0.36407	0.57732	-0.035
C 	C 	0.77823	0.34837	0.59283	-0.062
H 	H 	0.83697	0.34678	0.54838	-0.004
H 	H 	0.76442	0.31959	0.57408	-0.002
Cu	Cu	-1.46346e-32	0.40181	0.5	0.922
Cl	Cl	-6.37996e-33	0.32443	0.5	-0.615
Cl	Cl	-2.25263e-33	0.5	0.5	-0.497
Cu	Cu	0.8654	0.21573	0.5	0.58
C 	C 	0.88923	0.41606	0.58394	0.121
C 	C 	0.84306	0.40088	0.59912	-0.042
C 	C 	0.75571	0.36889	0.63111	-0.009
C 	C 	0.71082	0.34955	0.65045	0.007
C 	C 	0.68975	0.3689	0.68975	-0.076
H 	H 	0.70416	0.39919	0.70416	0.024
N 	N 	0.58002	0.95328	0.54607	-0.133
N 	N 	0.60331	0.91147	0.55031	-0.111
C 	C 	0.63593	0.82096	0.57732	-0.035
C 	C 	0.65163	0.77823	0.59283	-0.062
H 	H 	0.65322	0.83697	0.54838	-0.004
H 	H 	0.68041	0.76442	0.57408	-0.002
Cu	Cu	0.59819	-4.12733e-33	0.5	0.922
Cl	Cl	0.67557	-4.12733e-33	0.5	-0.614
Cu	Cu	0.78427	0.8654	0.5	0.581
C 	C 	0.58394	0.88923	0.58394	0.121
C 	C 	0.59912	0.84306	0.59912	-0.042
C 	C 	0.63111	0.75571	0.63111	-0.009
C 	C 	0.65045	0.71082	0.65045	0.007
C 	C 	0.6311	0.68975	0.68975	-0.076
H 	H 	0.60081	0.70416	0.70416	0.024
N 	N 	0.04672	0.58002	0.54607	-0.135
N 	N 	0.08853	0.60331	0.55031	-0.111
C 	C 	0.17904	0.63593	0.57732	-0.035
C 	C 	0.22177	0.65163	0.59283	-0.062
H 	H 	0.16303	0.65322	0.54838	-0.004
H 	H 	0.23558	0.68041	0.57408	-0.002
Cu	Cu	6.00203e-33	0.59819	0.5	0.922
Cl	Cl	1.8747e-33	0.67557	0.5	-0.614
Cu	Cu	0.1346	0.78427	0.5	0.58
C 	C 	0.11077	0.58394	0.58394	0.121
C 	C 	0.15694	0.59912	0.59912	-0.042
C 	C 	0.24429	0.63111	0.63111	-0.009
C 	C 	0.28918	0.65045	0.65045	0.007
C 	C 	0.31025	0.6311	0.68975	-0.076
H 	H 	0.29584	0.60081	0.70416	0.024
N 	N 	0.41998	0.95328	0.45393	-0.133
N 	N 	0.39669	0.91147	0.44969	-0.111
C 	C 	0.36407	0.82096	0.42268	-0.035
C 	C 	0.34837	0.77823	0.40717	-0.062
H 	H 	0.34678	0.83697	0.45162	-0.004
H 	H 	0.31959	0.76442	0.42592	-0.002
Cu	Cu	0.21573	0.8654	0.5	0.58
C 	C 	0.41606	0.88923	0.41606	0.121
C 	C 	0.40088	0.84306	0.40088	-0.042
C 	C 	0.36889	0.75571	0.36889	-0.009
C 	C 	0.34955	0.71082	0.34955	0.007
C 	C 	0.3689	0.68975	0.31025	-0.076
H 	H 	0.39919	0.70416	0.29584	0.024
N 	N 	0.04672	0.41998	0.45393	-0.135
N 	N 	0.08853	0.39669	0.44969	-0.111
C 	C 	0.17904	0.36407	0.42268	-0.035
C 	C 	0.22177	0.34837	0.40717	-0.063
H 	H 	0.16303	0.34678	0.45162	-0.004
H 	H 	0.23558	0.31959	0.42592	-0.002
Cu	Cu	0.1346	0.21573	0.5	0.578
C 	C 	0.11077	0.41606	0.41606	0.121
C 	C 	0.15694	0.40088	0.40088	-0.042
C 	C 	0.24429	0.36889	0.36889	-0.009
C 	C 	0.28918	0.34955	0.34955	0.007
C 	C 	0.31025	0.3689	0.31025	-0.076
H 	H 	0.29584	0.39919	0.29584	0.024
N 	N 	0.58002	0.04672	0.45393	-0.135
N 	N 	0.60331	0.08853	0.44969	-0.111
C 	C 	0.63593	0.17904	0.42268	-0.035
C 	C 	0.65163	0.22177	0.40717	-0.062
H 	H 	0.65322	0.16303	0.45162	-0.004
H 	H 	0.68041	0.23558	0.42592	-0.002
Cu	Cu	0.78427	0.1346	0.5	0.58
C 	C 	0.58394	0.11077	0.41606	0.121
C 	C 	0.59912	0.15694	0.40088	-0.042
C 	C 	0.63111	0.24429	0.36889	-0.009
C 	C 	0.65045	0.28918	0.34955	0.007
C 	C 	0.6311	0.31025	0.31025	-0.076
H 	H 	0.60081	0.29584	0.29584	0.024
N 	N 	0.95328	0.58002	0.45393	-0.133
N 	N 	0.91147	0.60331	0.44969	-0.111
C 	C 	0.82096	0.63593	0.42268	-0.035
C 	C 	0.77823	0.65163	0.40717	-0.062
H 	H 	0.83697	0.65322	0.45162	-0.004
H 	H 	0.76442	0.68041	0.42592	-0.002
Cu	Cu	0.8654	0.78427	0.5	0.581
C 	C 	0.88923	0.58394	0.41606	0.121
C 	C 	0.84306	0.59912	0.40088	-0.042
C 	C 	0.75571	0.63111	0.36889	-0.009
C 	C 	0.71082	0.65045	0.34955	0.007
C 	C 	0.68975	0.6311	0.31025	-0.076
H 	H 	0.70416	0.60081	0.29584	0.024
N 	N 	0.54607	0.41998	0.04672	-0.135
N 	N 	0.55031	0.39669	0.08853	-0.111
C 	C 	0.57732	0.36407	0.17904	-0.035
C 	C 	0.59283	0.34837	0.22177	-0.062
H 	H 	0.54838	0.34678	0.16303	-0.004
H 	H 	0.57408	0.31959	0.23558	-0.002
Cu	Cu	0.5	0.40181	-0	0.922
Cl	Cl	0.5	0.32443	-0	-0.615
Cl	Cl	0.5	0.5	-0	-0.497
Cu	Cu	0.5	0.21573	0.1346	0.578
C 	C 	0.58394	0.41606	0.11077	0.121
C 	C 	0.59912	0.40088	0.15694	-0.042
C 	C 	0.63111	0.36889	0.24429	-0.009
C 	C 	0.65045	0.34955	0.28918	0.007
C 	C 	0.68975	0.3689	0.31025	-0.076
H 	H 	0.70416	0.39919	0.29584	0.024
N 	N 	0.58002	0.54607	0.04672	-0.135
N 	N 	0.60331	0.55031	0.08853	-0.111
C 	C 	0.63593	0.57732	0.17904	-0.035
C 	C 	0.65163	0.59283	0.22177	-0.062
H 	H 	0.65322	0.54838	0.16303	-0.004
H 	H 	0.68041	0.57408	0.23558	-0.002
Cu	Cu	0.59819	0.5	-0	0.922
Cl	Cl	0.67557	0.5	-0	-0.614
Cu	Cu	0.78427	0.5	0.1346	0.58
C 	C 	0.58394	0.58394	0.11077	0.121
C 	C 	0.59912	0.59912	0.15694	-0.042
C 	C 	0.63111	0.63111	0.24429	-0.009
C 	C 	0.65045	0.65045	0.28918	0.007
C 	C 	0.6311	0.68975	0.31025	-0.076
H 	H 	0.60081	0.70416	0.29584	0.024
N 	N 	0.45393	0.58002	0.04672	-0.135
N 	N 	0.44969	0.60331	0.08853	-0.111
C 	C 	0.42268	0.63593	0.17904	-0.035
C 	C 	0.40717	0.65163	0.22177	-0.062
H 	H 	0.45162	0.65322	0.16303	-0.004
H 	H 	0.42592	0.68041	0.23558	-0.002
Cu	Cu	0.5	0.59819	-0	0.922
Cl	Cl	0.5	0.67557	-0	-0.614
Cu	Cu	0.5	0.78427	0.1346	0.58
C 	C 	0.41606	0.58394	0.11077	0.121
C 	C 	0.40088	0.59912	0.15694	-0.042
C 	C 	0.36889	0.63111	0.24429	-0.009
C 	C 	0.34955	0.65045	0.28918	0.007
C 	C 	0.31025	0.6311	0.31025	-0.076
H 	H 	0.29584	0.60081	0.29584	0.024
N 	N 	0.41998	0.45393	0.04672	-0.135
N 	N 	0.39669	0.44969	0.08853	-0.111
C 	C 	0.36407	0.42268	0.17904	-0.035
C 	C 	0.34837	0.40717	0.22177	-0.063
H 	H 	0.34678	0.45162	0.16303	-0.004
H 	H 	0.31959	0.42592	0.23558	-0.002
Cu	Cu	0.40181	0.5	-0	0.922
Cl	Cl	0.32443	0.5	-0	-0.615
Cu	Cu	0.21573	0.5	0.1346	0.578
C 	C 	0.41606	0.41606	0.11077	0.121
C 	C 	0.40088	0.40088	0.15694	-0.042
C 	C 	0.36889	0.36889	0.24429	-0.009
C 	C 	0.34955	0.34955	0.28918	0.007
C 	C 	0.3689	0.31025	0.31025	-0.076
H 	H 	0.39919	0.29584	0.29584	0.024
N 	N 	0.54607	0.58002	0.95328	-0.133
N 	N 	0.55031	0.60331	0.91147	-0.111
C 	C 	0.57732	0.63593	0.82096	-0.035
C 	C 	0.59283	0.65163	0.77823	-0.062
H 	H 	0.54838	0.65322	0.83697	-0.004
H 	H 	0.57408	0.68041	0.76442	-0.002
Cu	Cu	0.5	0.78427	0.8654	0.581
C 	C 	0.58394	0.58394	0.88923	0.121
C 	C 	0.59912	0.59912	0.84306	-0.042
C 	C 	0.63111	0.63111	0.75571	-0.009
C 	C 	0.65045	0.65045	0.71082	0.007
C 	C 	0.68975	0.6311	0.68975	-0.076
H 	H 	0.70416	0.60081	0.70416	0.024
N 	N 	0.41998	0.54607	0.95328	-0.133
N 	N 	0.39669	0.55031	0.91147	-0.111
C 	C 	0.36407	0.57732	0.82096	-0.035
C 	C 	0.34837	0.59283	0.77823	-0.062
H 	H 	0.34678	0.54838	0.83697	-0.004
H 	H 	0.31959	0.57408	0.76442	-0.002
Cu	Cu	0.21573	0.5	0.8654	0.58
C 	C 	0.41606	0.58394	0.88923	0.121
C 	C 	0.40088	0.59912	0.84306	-0.042
C 	C 	0.36889	0.63111	0.75571	-0.009
C 	C 	0.34955	0.65045	0.71082	0.007
C 	C 	0.3689	0.68975	0.68975	-0.076
H 	H 	0.39919	0.70416	0.70416	0.024
N 	N 	0.45393	0.41998	0.95328	-0.133
N 	N 	0.44969	0.39669	0.91147	-0.111
C 	C 	0.42268	0.36407	0.82096	-0.035
C 	C 	0.40717	0.34837	0.77823	-0.062
H 	H 	0.45162	0.34678	0.83697	-0.004
H 	H 	0.42592	0.31959	0.76442	-0.002
Cu	Cu	0.5	0.21573	0.8654	0.58
C 	C 	0.41606	0.41606	0.88923	0.121
C 	C 	0.40088	0.40088	0.84306	-0.042
C 	C 	0.36889	0.36889	0.75571	-0.009
C 	C 	0.34955	0.34955	0.71082	0.007
C 	C 	0.31025	0.3689	0.68975	-0.076
H 	H 	0.29584	0.39919	0.70416	0.024
N 	N 	0.58002	0.45393	0.95328	-0.133
N 	N 	0.60331	0.44969	0.91147	-0.111
C 	C 	0.63593	0.42268	0.82096	-0.035
C 	C 	0.65163	0.40717	0.77823	-0.062
H 	H 	0.65322	0.45162	0.83697	-0.004
H 	H 	0.68041	0.42592	0.76442	-0.002
Cu	Cu	0.78427	0.5	0.8654	0.581
C 	C 	0.58394	0.41606	0.88923	0.121
C 	C 	0.59912	0.40088	0.84306	-0.042
C 	C 	0.63111	0.36889	0.75571	-0.009
C 	C 	0.65045	0.34955	0.71082	0.007
C 	C 	0.6311	0.31025	0.68975	-0.076
H 	H 	0.60081	0.29584	0.70416	0.024
N 	N 	0.04672	0.54607	0.41998	-0.135
N 	N 	0.08853	0.55031	0.39669	-0.111
C 	C 	0.17904	0.57732	0.36407	-0.035
C 	C 	0.22177	0.59283	0.34837	-0.062
H 	H 	0.16303	0.54838	0.34678	-0.004
H 	H 	0.23558	0.57408	0.31959	-0.002
Cu	Cu	-1.08754e-32	0.5	0.40181	0.922
Cl	Cl	-2.91091e-33	0.5	0.32443	-0.615
Cu	Cu	0.1346	0.5	0.21573	0.578
C 	C 	0.11077	0.58394	0.41606	0.121
C 	C 	0.15694	0.59912	0.40088	-0.042
C 	C 	0.24429	0.63111	0.36889	-0.009
C 	C 	0.28918	0.65045	0.34955	0.007
C 	C 	0.31025	0.68975	0.3689	-0.076
H 	H 	0.29584	0.70416	0.39919	0.024
N 	N 	0.04672	0.45393	0.58002	-0.135
N 	N 	0.08853	0.44969	0.60331	-0.111
C 	C 	0.17904	0.42268	0.63593	-0.035
C 	C 	0.22177	0.40717	0.65163	-0.062
H 	H 	0.16303	0.45162	0.65322	-0.004
H 	H 	0.23558	0.42592	0.68041	-0.002
Cu	Cu	2.24285e-33	0.5	0.59819	0.922
Cl	Cl	-5.72168e-33	0.5	0.67557	-0.614
Cu	Cu	0.1346	0.5	0.78427	0.58
C 	C 	0.11077	0.41606	0.58394	0.121
C 	C 	0.15694	0.40088	0.59912	-0.042
C 	C 	0.24429	0.36889	0.63111	-0.009
C 	C 	0.28918	0.34955	0.65045	0.007
C 	C 	0.31025	0.31025	0.6311	-0.076
H 	H 	0.29584	0.29584	0.60081	0.024
N 	N 	0.54607	0.04672	0.58002	-0.135
N 	N 	0.55031	0.08853	0.60331	-0.111
C 	C 	0.57732	0.17904	0.63593	-0.035
C 	C 	0.59283	0.22177	0.65163	-0.062
H 	H 	0.54838	0.16303	0.65322	-0.004
H 	H 	0.57408	0.23558	0.68041	-0.002
Cu	Cu	0.5	-4.12733e-33	0.59819	0.922
Cl	Cl	0.5	0	0.67557	-0.614
Cu	Cu	0.5	0.1346	0.78427	0.58
C 	C 	0.58394	0.11077	0.58394	0.121
C 	C 	0.59912	0.15694	0.59912	-0.042
C 	C 	0.63111	0.24429	0.63111	-0.009
C 	C 	0.65045	0.28918	0.65045	0.007
C 	C 	0.68975	0.31025	0.6311	-0.076
H 	H 	0.70416	0.29584	0.60081	0.024
N 	N 	0.95328	0.54607	0.58002	-0.133
N 	N 	0.91147	0.55031	0.60331	-0.111
C 	C 	0.82096	0.57732	0.63593	-0.035
C 	C 	0.77823	0.59283	0.65163	-0.062
H 	H 	0.83697	0.54838	0.65322	-0.004
H 	H 	0.76442	0.57408	0.68041	-0.002
Cu	Cu	0.8654	0.5	0.78427	0.581
C 	C 	0.88923	0.58394	0.58394	0.121
C 	C 	0.84306	0.59912	0.59912	-0.042
C 	C 	0.75571	0.63111	0.63111	-0.009
C 	C 	0.71082	0.65045	0.65045	0.007
C 	C 	0.68975	0.68975	0.6311	-0.076
H 	H 	0.70416	0.70416	0.60081	0.024
N 	N 	0.45393	0.95328	0.58002	-0.133
N 	N 	0.44969	0.91147	0.60331	-0.111
C 	C 	0.42268	0.82096	0.63593	-0.035
C 	C 	0.40717	0.77823	0.65163	-0.062
H 	H 	0.45162	0.83697	0.65322	-0.004
H 	H 	0.42592	0.76442	0.68041	-0.002
Cu	Cu	0.5	0.8654	0.78427	0.581
C 	C 	0.41606	0.88923	0.58394	0.121
C 	C 	0.40088	0.84306	0.59912	-0.042
C 	C 	0.36889	0.75571	0.63111	-0.009
C 	C 	0.34955	0.71082	0.65045	0.007
C 	C 	0.31025	0.68975	0.6311	-0.076
H 	H 	0.29584	0.70416	0.60081	0.024
N 	N 	0.95328	0.45393	0.41998	-0.133
N 	N 	0.91147	0.44969	0.39669	-0.111
C 	C 	0.82096	0.42268	0.36407	-0.035
C 	C 	0.77823	0.40717	0.34837	-0.062
H 	H 	0.83697	0.45162	0.34678	-0.004
H 	H 	0.76442	0.42592	0.31959	-0.002
Cu	Cu	0.8654	0.5	0.21573	0.58
C 	C 	0.88923	0.41606	0.41606	0.121
C 	C 	0.84306	0.40088	0.40088	-0.042
C 	C 	0.75571	0.36889	0.36889	-0.009
C 	C 	0.71082	0.34955	0.34955	0.007
C 	C 	0.68975	0.31025	0.3689	-0.076
H 	H 	0.70416	0.29584	0.39919	0.024
N 	N 	0.54607	0.95328	0.41998	-0.133
N 	N 	0.55031	0.91147	0.39669	-0.111
C 	C 	0.57732	0.82096	0.36407	-0.035
C 	C 	0.59283	0.77823	0.34837	-0.062
H 	H 	0.54838	0.83697	0.34678	-0.004
H 	H 	0.57408	0.76442	0.31959	-0.002
Cu	Cu	0.5	0	0.40181	0.922
Cl	Cl	0.5	0	0.32443	-0.615
Cu	Cu	0.5	0.8654	0.21573	0.58
C 	C 	0.58394	0.88923	0.41606	0.121
C 	C 	0.59912	0.84306	0.40088	-0.042
C 	C 	0.63111	0.75571	0.36889	-0.009
C 	C 	0.65045	0.71082	0.34955	0.007
C 	C 	0.68975	0.68975	0.3689	-0.076
H 	H 	0.70416	0.70416	0.39919	0.024
N 	N 	0.45393	0.04672	0.41998	-0.135
N 	N 	0.44969	0.08853	0.39669	-0.111
C 	C 	0.42268	0.17904	0.36407	-0.035
C 	C 	0.40717	0.22177	0.34837	-0.063
H 	H 	0.45162	0.16303	0.34678	-0.004
H 	H 	0.42592	0.23558	0.31959	-0.002
Cu	Cu	0.5	0.1346	0.21573	0.578
C 	C 	0.41606	0.11077	0.41606	0.121
C 	C 	0.40088	0.15694	0.40088	-0.042
C 	C 	0.36889	0.24429	0.36889	-0.009
C 	C 	0.34955	0.28918	0.34955	0.007
C 	C 	0.31025	0.31025	0.3689	-0.076
H 	H 	0.29584	0.29584	0.39919	0.024
N 	N 	0.58002	0.95328	0.45393	-0.133
N 	N 	0.60331	0.91147	0.44969	-0.111
C 	C 	0.63593	0.82096	0.42268	-0.035
C 	C 	0.65163	0.77823	0.40717	-0.062
H 	H 	0.65322	0.83697	0.45162	-0.004
H 	H 	0.68041	0.76442	0.42592	-0.002
N 	N 	0.04672	0.58002	0.45393	-0.135
N 	N 	0.08853	0.60331	0.44969	-0.111
C 	C 	0.17904	0.63593	0.42268	-0.035
C 	C 	0.22177	0.65163	0.40717	-0.062
H 	H 	0.16303	0.65322	0.45162	-0.004
H 	H 	0.23558	0.68041	0.42592	-0.002
N 	N 	0.41998	0.04672	0.45393	-0.135
N 	N 	0.39669	0.08853	0.44969	-0.111
C 	C 	0.36407	0.17904	0.42268	-0.035
C 	C 	0.34837	0.22177	0.40717	-0.063
H 	H 	0.34678	0.16303	0.45162	-0.004
H 	H 	0.31959	0.23558	0.42592	-0.002
N 	N 	0.95328	0.41998	0.45393	-0.133
N 	N 	0.91147	0.39669	0.44969	-0.111
C 	C 	0.82096	0.36407	0.42268	-0.035
C 	C 	0.77823	0.34837	0.40717	-0.062
H 	H 	0.83697	0.34678	0.45162	-0.004
H 	H 	0.76442	0.31959	0.42592	-0.002
N 	N 	0.58002	0.04672	0.54607	-0.135
N 	N 	0.60331	0.08853	0.55031	-0.111
C 	C 	0.63593	0.17904	0.57732	-0.035
C 	C 	0.65163	0.22177	0.59283	-0.062
H 	H 	0.65322	0.16303	0.54838	-0.004
H 	H 	0.68041	0.23558	0.57408	-0.002
N 	N 	0.95328	0.58002	0.54607	-0.133
N 	N 	0.91147	0.60331	0.55031	-0.111
C 	C 	0.82096	0.63593	0.57732	-0.035
C 	C 	0.77823	0.65163	0.59283	-0.062
H 	H 	0.83697	0.65322	0.54838	-0.004
H 	H 	0.76442	0.68041	0.57408	-0.002
N 	N 	0.41998	0.95328	0.54607	-0.133
N 	N 	0.39669	0.91147	0.55031	-0.111
C 	C 	0.36407	0.82096	0.57732	-0.035
C 	C 	0.34837	0.77823	0.59283	-0.062
H 	H 	0.34678	0.83697	0.54838	-0.004
H 	H 	0.31959	0.76442	0.57408	-0.002
N 	N 	0.04672	0.41998	0.54607	-0.135
N 	N 	0.08853	0.39669	0.55031	-0.111
C 	C 	0.17904	0.36407	0.57732	-0.035
C 	C 	0.22177	0.34837	0.59283	-0.062
H 	H 	0.16303	0.34678	0.54838	-0.004
H 	H 	0.23558	0.31959	0.57408	-0.002
N 	N 	0.45393	0.58002	0.95328	-0.133
N 	N 	0.44969	0.60331	0.91147	-0.111
C 	C 	0.42268	0.63593	0.82096	-0.035
C 	C 	0.40717	0.65163	0.77823	-0.062
H 	H 	0.45162	0.65322	0.83697	-0.004
H 	H 	0.42592	0.68041	0.76442	-0.002
N 	N 	0.41998	0.45393	0.95328	-0.133
N 	N 	0.39669	0.44969	0.91147	-0.111
C 	C 	0.36407	0.42268	0.82096	-0.035
C 	C 	0.34837	0.40717	0.77823	-0.062
H 	H 	0.34678	0.45162	0.83697	-0.004
H 	H 	0.31959	0.42592	0.76442	-0.002
N 	N 	0.54607	0.41998	0.95328	-0.133
N 	N 	0.55031	0.39669	0.91147	-0.111
C 	C 	0.57732	0.36407	0.82096	-0.035
C 	C 	0.59283	0.34837	0.77823	-0.062
H 	H 	0.54838	0.34678	0.83697	-0.004
H 	H 	0.57408	0.31959	0.76442	-0.002
N 	N 	0.58002	0.54607	0.95328	-0.133
N 	N 	0.60331	0.55031	0.91147	-0.111
C 	C 	0.63593	0.57732	0.82096	-0.035
C 	C 	0.65163	0.59283	0.77823	-0.062
H 	H 	0.65322	0.54838	0.83697	-0.004
H 	H 	0.68041	0.57408	0.76442	-0.002
N 	N 	0.45393	0.41998	0.04672	-0.135
N 	N 	0.44969	0.39669	0.08853	-0.111
C 	C 	0.42268	0.36407	0.17904	-0.035
C 	C 	0.40717	0.34837	0.22177	-0.063
H 	H 	0.45162	0.34678	0.16303	-0.004
H 	H 	0.42592	0.31959	0.23558	-0.002
N 	N 	0.58002	0.45393	0.04672	-0.135
N 	N 	0.60331	0.44969	0.08853	-0.111
C 	C 	0.63593	0.42268	0.17904	-0.035
C 	C 	0.65163	0.40717	0.22177	-0.062
H 	H 	0.65322	0.45162	0.16303	-0.004
H 	H 	0.68041	0.42592	0.23558	-0.002
N 	N 	0.54607	0.58002	0.04672	-0.135
N 	N 	0.55031	0.60331	0.08853	-0.111
C 	C 	0.57732	0.63593	0.17904	-0.035
C 	C 	0.59283	0.65163	0.22177	-0.062
H 	H 	0.54838	0.65322	0.16303	-0.004
H 	H 	0.57408	0.68041	0.23558	-0.002
N 	N 	0.41998	0.54607	0.04672	-0.135
N 	N 	0.39669	0.55031	0.08853	-0.111
C 	C 	0.36407	0.57732	0.17904	-0.035
C 	C 	0.34837	0.59283	0.22177	-0.062
H 	H 	0.34678	0.54838	0.16303	-0.004
H 	H 	0.31959	0.57408	0.23558	-0.002
N 	N 	0.95328	0.45393	0.58002	-0.133
N 	N 	0.91147	0.44969	0.60331	-0.111
C 	C 	0.82096	0.42268	0.63593	-0.035
C 	C 	0.77823	0.40717	0.65163	-0.062
H 	H 	0.83697	0.45162	0.65322	-0.004
H 	H 	0.76442	0.42592	0.68041	-0.002
N 	N 	0.95328	0.54607	0.41998	-0.133
N 	N 	0.91147	0.55031	0.39669	-0.111
C 	C 	0.82096	0.57732	0.36407	-0.035
C 	C 	0.77823	0.59283	0.34837	-0.062
H 	H 	0.83697	0.54838	0.34678	-0.004
H 	H 	0.76442	0.57408	0.31959	-0.002
N 	N 	0.45393	0.95328	0.41998	-0.133
N 	N 	0.44969	0.91147	0.39669	-0.111
C 	C 	0.42268	0.82096	0.36407	-0.035
C 	C 	0.40717	0.77823	0.34837	-0.062
H 	H 	0.45162	0.83697	0.34678	-0.004
H 	H 	0.42592	0.76442	0.31959	-0.002
N 	N 	0.04672	0.45393	0.41998	-0.135
N 	N 	0.08853	0.44969	0.39669	-0.111
C 	C 	0.17904	0.42268	0.36407	-0.035
C 	C 	0.22177	0.40717	0.34837	-0.063
H 	H 	0.16303	0.45162	0.34678	-0.004
H 	H 	0.23558	0.42592	0.31959	-0.002
N 	N 	0.54607	0.04672	0.41998	-0.135
N 	N 	0.55031	0.08853	0.39669	-0.111
C 	C 	0.57732	0.17904	0.36407	-0.035
C 	C 	0.59283	0.22177	0.34837	-0.062
H 	H 	0.54838	0.16303	0.34678	-0.004
H 	H 	0.57408	0.23558	0.31959	-0.002
N 	N 	0.04672	0.54607	0.58002	-0.135
N 	N 	0.08853	0.55031	0.60331	-0.111
C 	C 	0.17904	0.57732	0.63593	-0.035
C 	C 	0.22177	0.59283	0.65163	-0.062
H 	H 	0.16303	0.54838	0.65322	-0.004
H 	H 	0.23558	0.57408	0.68041	-0.002
N 	N 	0.45393	0.04672	0.58002	-0.135
N 	N 	0.44969	0.08853	0.60331	-0.111
C 	C 	0.42268	0.17904	0.63593	-0.035
C 	C 	0.40717	0.22177	0.65163	-0.062
H 	H 	0.45162	0.16303	0.65322	-0.004
H 	H 	0.42592	0.23558	0.68041	-0.002
N 	N 	0.54607	0.95328	0.58002	-0.133
N 	N 	0.55031	0.91147	0.60331	-0.111
C 	C 	0.57732	0.82096	0.63593	-0.035
C 	C 	0.59283	0.77823	0.65163	-0.062
H 	H 	0.54838	0.83697	0.65322	-0.004
H 	H 	0.57408	0.76442	0.68041	-0.002
_end
