data_functionalizedCrystal
_audit_creation_method	'EQeq! by Chris Wilmer'
_symmetry_space_group_name_H-M	'P1'
_symmetry_Int_Tables_number	1
_symmetry_cell_setting	triclinic
loop_
_symmetry_equiv_pos_as_xyz
  x,y,z
_cell_length_a	24.311
_cell_length_b	24.311
_cell_length_c	24.311
_cell_angle_alpha	60
_cell_angle_beta	60
_cell_angle_gamma	60
loop_
_atom_site_label
_atom_site_type_symbol
_atom_site_fract_x
_atom_site_fract_y
_atom_site_fract_z
_atom_site_charge
Zn	Zn	0.21725	0.34825	0.21725	1.207
Zn	Zn	0.34825	0.21725	0.21725	1.207
Zn	Zn	0.21725	0.21725	0.21725	1.206
Zn	Zn	0.21725	0.21725	0.34825	1.206
Zn	Zn	0.65175	0.78275	0.78275	1.206
Zn	Zn	0.78275	0.65175	0.78275	1.206
Zn	Zn	0.78275	0.78275	0.78275	1.206
Zn	Zn	0.78275	0.78275	0.65175	1.206
H 	H 	0.4866	0.321	0.0962	0.043
H 	H 	0.5951	0.3387	0.0331	0.049
H 	H 	0.321	0.4866	0.0962	0.043
H 	H 	0.3387	0.5951	0.0331	0.049
H 	H 	0.0962	0.0962	0.4866	0.043
H 	H 	0.0331	0.0331	0.5951	0.049
H 	H 	0.0962	0.0962	0.321	0.043
H 	H 	0.0331	0.0331	0.3387	0.049
H 	H 	0.4866	0.0962	0.0962	0.043
H 	H 	0.5951	0.0331	0.0331	0.049
H 	H 	0.321	0.0962	0.0962	0.043
H 	H 	0.3387	0.0331	0.0331	0.049
H 	H 	0.0962	0.4866	0.321	0.043
H 	H 	0.0331	0.5951	0.3387	0.049
H 	H 	0.0962	0.321	0.4866	0.043
H 	H 	0.0331	0.3387	0.5951	0.049
H 	H 	0.4866	0.0962	0.321	0.043
H 	H 	0.5951	0.0331	0.3387	0.049
H 	H 	0.321	0.0962	0.4866	0.043
H 	H 	0.3387	0.0331	0.5951	0.049
H 	H 	0.0962	0.321	0.0962	0.043
H 	H 	0.0331	0.3387	0.0331	0.049
H 	H 	0.0962	0.4866	0.0962	0.043
H 	H 	0.0331	0.5951	0.0331	0.049
H 	H 	0.679	0.5134	0.9038	0.043
H 	H 	0.6613	0.4049	0.9669	0.049
H 	H 	0.5134	0.679	0.9038	0.043
H 	H 	0.4049	0.6613	0.9669	0.049
H 	H 	0.9038	0.9038	0.5134	0.043
H 	H 	0.9669	0.9669	0.4049	0.049
H 	H 	0.9038	0.9038	0.679	0.043
H 	H 	0.9669	0.9669	0.6613	0.049
H 	H 	0.9038	0.5134	0.9038	0.043
H 	H 	0.9669	0.4049	0.9669	0.049
H 	H 	0.9038	0.679	0.9038	0.043
H 	H 	0.9669	0.6613	0.9669	0.049
H 	H 	0.5134	0.9038	0.679	0.043
H 	H 	0.4049	0.9669	0.6613	0.049
H 	H 	0.679	0.9038	0.5134	0.043
H 	H 	0.6613	0.9669	0.4049	0.049
H 	H 	0.9038	0.5134	0.679	0.043
H 	H 	0.9669	0.4049	0.6613	0.049
H 	H 	0.9038	0.679	0.5134	0.043
H 	H 	0.9669	0.6613	0.4049	0.049
H 	H 	0.679	0.9038	0.9038	0.043
H 	H 	0.6613	0.9669	0.9669	0.049
H 	H 	0.5134	0.9038	0.9038	0.043
H 	H 	0.4049	0.9669	0.9669	0.049
C 	C 	0.4655	0.3675	0.0835	0.001
C 	C 	0.5038	0.4106	0.0428	0.01
C 	C 	0.5741	0.3853	0.0203	-0.054
C 	C 	0.3675	0.4655	0.0835	0.001
C 	C 	0.4106	0.5038	0.0428	0.01
C 	C 	0.3853	0.5741	0.0203	-0.054
C 	C 	0.0835	0.0835	0.4655	0.001
C 	C 	0.0428	0.0428	0.5038	0.01
C 	C 	0.0203	0.0203	0.5741	-0.054
C 	C 	0.0835	0.0835	0.3675	0.001
C 	C 	0.0428	0.0428	0.4106	0.01
C 	C 	0.0203	0.0203	0.3853	-0.054
C 	C 	0.4655	0.0835	0.0835	0.001
C 	C 	0.5038	0.0428	0.0428	0.01
C 	C 	0.5741	0.0203	0.0203	-0.054
C 	C 	0.3675	0.0835	0.0835	0.001
C 	C 	0.4106	0.0428	0.0428	0.01
C 	C 	0.3853	0.0203	0.0203	-0.054
C 	C 	0.0835	0.4655	0.3675	0.001
C 	C 	0.0428	0.5038	0.4106	0.01
C 	C 	0.0203	0.5741	0.3853	-0.054
C 	C 	0.0835	0.3675	0.4655	0.001
C 	C 	0.0428	0.4106	0.5038	0.01
C 	C 	0.0203	0.3853	0.5741	-0.054
C 	C 	0.4655	0.0835	0.3675	0.001
C 	C 	0.5038	0.0428	0.4106	0.01
C 	C 	0.5741	0.0203	0.3853	-0.054
C 	C 	0.3675	0.0835	0.4655	0.001
C 	C 	0.4106	0.0428	0.5038	0.01
C 	C 	0.3853	0.0203	0.5741	-0.054
C 	C 	0.0835	0.3675	0.0835	0.001
C 	C 	0.0428	0.4106	0.0428	0.01
C 	C 	0.0203	0.3853	0.0203	-0.054
C 	C 	0.0835	0.4655	0.0835	0.001
C 	C 	0.0428	0.5038	0.0428	0.01
C 	C 	0.0203	0.5741	0.0203	-0.054
C 	C 	0.6325	0.5345	0.9165	0.001
C 	C 	0.5894	0.4962	0.9572	0.01
C 	C 	0.6147	0.4259	0.9797	-0.054
C 	C 	0.5345	0.6325	0.9165	0.001
C 	C 	0.4962	0.5894	0.9572	0.01
C 	C 	0.4259	0.6147	0.9797	-0.054
C 	C 	0.9165	0.9165	0.5345	0.001
C 	C 	0.9572	0.9572	0.4962	0.01
C 	C 	0.9797	0.9797	0.4259	-0.054
C 	C 	0.9165	0.9165	0.6325	0.001
C 	C 	0.9572	0.9572	0.5894	0.01
C 	C 	0.9797	0.9797	0.6147	-0.054
C 	C 	0.9165	0.5345	0.9165	0.001
C 	C 	0.9572	0.4962	0.9572	0.01
C 	C 	0.9797	0.4259	0.9797	-0.054
C 	C 	0.9165	0.6325	0.9165	0.001
C 	C 	0.9572	0.5894	0.9572	0.01
C 	C 	0.9797	0.6147	0.9797	-0.054
C 	C 	0.5345	0.9165	0.6325	0.001
C 	C 	0.4962	0.9572	0.5894	0.01
C 	C 	0.4259	0.9797	0.6147	-0.054
C 	C 	0.6325	0.9165	0.5345	0.001
C 	C 	0.5894	0.9572	0.4962	0.01
C 	C 	0.6147	0.9797	0.4259	-0.054
C 	C 	0.9165	0.5345	0.6325	0.001
C 	C 	0.9572	0.4962	0.5894	0.01
C 	C 	0.9797	0.4259	0.6147	-0.054
C 	C 	0.9165	0.6325	0.5345	0.001
C 	C 	0.9572	0.5894	0.4962	0.01
C 	C 	0.9797	0.6147	0.4259	-0.054
C 	C 	0.6325	0.9165	0.9165	0.001
C 	C 	0.5894	0.9572	0.9572	0.01
C 	C 	0.6147	0.9797	0.9797	-0.054
C 	C 	0.5345	0.9165	0.9165	0.001
C 	C 	0.4962	0.9572	0.9572	0.01
C 	C 	0.4259	0.9797	0.9797	-0.054
C 	C 	0.3952	0.3952	0.1048	-0.157
C 	C 	0.3563	0.3563	0.1437	0.456
C 	C 	0.4808	0.4808	0.0192	-0.003
C 	C 	0.1048	0.1048	0.3952	-0.157
C 	C 	0.1437	0.1437	0.3563	0.456
C 	C 	0.0192	0.0192	0.4808	-0.003
C 	C 	0.3952	0.1048	0.1048	-0.157
C 	C 	0.3563	0.1437	0.1437	0.456
C 	C 	0.4808	0.0192	0.0192	-0.003
C 	C 	0.1048	0.3952	0.3952	-0.157
C 	C 	0.1437	0.3563	0.3563	0.456
C 	C 	0.0192	0.4808	0.4808	-0.003
C 	C 	0.3952	0.1048	0.3952	-0.157
C 	C 	0.3563	0.1437	0.3563	0.456
C 	C 	0.4808	0.0192	0.4808	-0.003
C 	C 	0.1048	0.3952	0.1048	-0.157
C 	C 	0.1437	0.3563	0.1437	0.456
C 	C 	0.0192	0.4808	0.0192	-0.003
C 	C 	0.6048	0.6048	0.8952	-0.157
C 	C 	0.6437	0.6437	0.8563	0.456
C 	C 	0.5192	0.5192	0.9808	-0.003
C 	C 	0.8952	0.8952	0.6048	-0.157
C 	C 	0.8563	0.8563	0.6437	0.456
C 	C 	0.9808	0.9808	0.5192	-0.003
C 	C 	0.8952	0.6048	0.8952	-0.157
C 	C 	0.8563	0.6437	0.8563	0.456
C 	C 	0.9808	0.5192	0.9808	-0.003
C 	C 	0.6048	0.8952	0.6048	-0.157
C 	C 	0.6437	0.8563	0.6437	0.456
C 	C 	0.5192	0.9808	0.5192	-0.003
C 	C 	0.8952	0.6048	0.6048	-0.157
C 	C 	0.8563	0.6437	0.6437	0.456
C 	C 	0.9808	0.5192	0.5192	-0.003
C 	C 	0.6048	0.8952	0.8952	-0.157
C 	C 	0.6437	0.8563	0.8563	0.456
C 	C 	0.5192	0.9808	0.9808	-0.003
O 	O 	0.25	0.25	0.25	-0.961
O 	O 	0.75	0.75	0.75	-0.961
O 	O 	0.2937	0.3837	0.1613	-0.519
O 	O 	0.3837	0.2937	0.1613	-0.519
O 	O 	0.1613	0.1613	0.2937	-0.519
O 	O 	0.1613	0.1613	0.3837	-0.519
O 	O 	0.2937	0.1613	0.1613	-0.519
O 	O 	0.3837	0.1613	0.1613	-0.519
O 	O 	0.1613	0.2937	0.3837	-0.519
O 	O 	0.1613	0.3837	0.2937	-0.519
O 	O 	0.2937	0.1613	0.3837	-0.519
O 	O 	0.3837	0.1613	0.2937	-0.519
O 	O 	0.1613	0.3837	0.1613	-0.519
O 	O 	0.1613	0.2937	0.1613	-0.519
O 	O 	0.6163	0.7063	0.8387	-0.519
O 	O 	0.7063	0.6163	0.8387	-0.519
O 	O 	0.8387	0.8387	0.7063	-0.519
O 	O 	0.8387	0.8387	0.6163	-0.519
O 	O 	0.8387	0.7063	0.8387	-0.519
O 	O 	0.8387	0.6163	0.8387	-0.519
O 	O 	0.7063	0.8387	0.6163	-0.519
O 	O 	0.6163	0.8387	0.7063	-0.519
O 	O 	0.8387	0.7063	0.6163	-0.519
O 	O 	0.8387	0.6163	0.7063	-0.519
O 	O 	0.6163	0.8387	0.8387	-0.519
O 	O 	0.7063	0.8387	0.8387	-0.519
_end
