data_functionalizedCrystal
_audit_creation_method	'EQeq! by Chris Wilmer'
_symmetry_space_group_name_H-M	'P1'
_symmetry_Int_Tables_number	1
_symmetry_cell_setting	triclinic
loop_
_symmetry_equiv_pos_as_xyz
  x,y,z
_cell_length_a	14.1273
_cell_length_b	23.6972
_cell_length_c	23.6972
_cell_angle_alpha	90
_cell_angle_beta	90
_cell_angle_gamma	90
loop_
_atom_site_label
_atom_site_type_symbol
_atom_site_fract_x
_atom_site_fract_y
_atom_site_fract_z
_atom_site_charge
Na	Na	0.25	0.91899	0.5	2.461
Na	Na	0.75	0.08101	0.5	2.483
Na	Na	5.77977e-33	0.5	0.91899	2.348
Na	Na	0.5	0.5	0.08101	2.45
Dy	Dy	3.71142e-33	0	0.59012	1.483
Dy	Dy	0.5	0	0.40988	1.577
Dy	Dy	0.75	0.40988	-0	1.582
Dy	Dy	0.25	0.59012	-0	1.574
H 	H 	0.8461	0.9592	0.4713	-0.04
H 	H 	0.7777	0.944	0.3074	-0.018
H 	H 	0.0397	0.9041	0.36	-0.056
H 	H 	0.0608	0.9495	0.2656	-0.049
H 	H 	0.7836	0.8543	0.2945	0.191
H 	H 	0.738	0.8521	0.2342	0.183
H 	H 	0.8018	0.8022	0.2551	0.181
H 	H 	0.0984	0.9517	0.0866	0.46
H 	H 	0.0954	0.005	0.1258	0.449
H 	H 	0.1918	0.9848	0.1	0.458
H 	H 	0.2183	0.8609	0.1795	0.423
H 	H 	0.1786	0.8647	0.1179	0.445
H 	H 	0.27	0.8982	0.1345	0.408
H 	H 	0.213	0.9506	0.2403	0.446
H 	H 	0.2602	0.9839	0.1905	0.449
H 	H 	0.1639	0.0047	0.216	0.46
H 	H 	0.3461	0.0408	0.5287	-0.053
H 	H 	0.2777	0.056	0.6926	-0.004
H 	H 	0.5397	0.0959	0.64	-0.004
H 	H 	0.5608	0.0505	0.7344	-0.12
H 	H 	0.2836	0.1457	0.7055	0.202
H 	H 	0.238	0.1479	0.7658	0.194
H 	H 	0.3018	0.1978	0.7449	0.189
H 	H 	0.5984	0.0483	0.9134	0.684
H 	H 	0.5954	0.995	0.8742	0.721
H 	H 	0.6918	0.0152	0.9	0.67
H 	H 	0.7183	0.1391	0.8205	0.574
H 	H 	0.6786	0.1353	0.8821	0.597
H 	H 	0.77	0.1018	0.8655	0.559
H 	H 	0.713	0.0494	0.7597	0.648
H 	H 	0.7602	0.0161	0.8095	0.647
H 	H 	0.6639	0.9953	0.784	0.711
H 	H 	0.5961	0.5287	0.9592	-0.044
H 	H 	0.5277	0.6926	0.944	-0.012
H 	H 	0.7897	0.64	0.9041	0
H 	H 	0.8108	0.7344	0.9495	-0.035
H 	H 	0.5336	0.7055	0.8543	0.19
H 	H 	0.488	0.7658	0.8521	0.186
H 	H 	0.5518	0.7449	0.8022	0.179
H 	H 	0.8484	0.9134	0.9517	0.398
H 	H 	0.8454	0.8742	0.005	0.389
H 	H 	0.9418	0.9	0.9848	0.41
H 	H 	0.9683	0.8205	0.8609	0.33
H 	H 	0.9286	0.8821	0.8647	0.348
H 	H 	0.02	0.8655	0.8982	0.281
H 	H 	0.963	0.7597	0.9506	0.341
H 	H 	0.0102	0.8095	0.9839	0.309
H 	H 	0.9139	0.784	0.0047	0.35
H 	H 	0.0961	0.4713	0.0408	-0.066
H 	H 	0.0277	0.3074	0.056	-0.026
H 	H 	0.2897	0.36	0.0959	-0.008
H 	H 	0.3108	0.2656	0.0505	-0.121
H 	H 	0.0336	0.2945	0.1457	0.251
H 	H 	0.988	0.2342	0.1479	0.282
H 	H 	0.0518	0.2551	0.1978	0.239
H 	H 	0.3484	0.0866	0.0483	0.657
H 	H 	0.3454	0.1258	0.995	0.699
H 	H 	0.4418	0.1	0.0152	0.639
H 	H 	0.4683	0.1795	0.1391	0.547
H 	H 	0.4286	0.1179	0.1353	0.57
H 	H 	0.52	0.1345	0.1018	0.528
H 	H 	0.463	0.2403	0.0494	0.626
H 	H 	0.5102	0.1905	0.0161	0.62
H 	H 	0.4139	0.216	0.9953	0.692
H 	H 	0.1539	0.0408	0.4713	-0.055
H 	H 	0.2223	0.056	0.3074	0.004
H 	H 	0.9603	0.0959	0.36	0.048
H 	H 	0.9392	0.0505	0.2656	-0.121
H 	H 	0.2164	0.1457	0.2945	0.201
H 	H 	0.262	0.1479	0.2342	0.195
H 	H 	0.1982	0.1978	0.2551	0.186
H 	H 	0.9016	0.0483	0.0866	0.652
H 	H 	0.9046	0.995	0.1258	0.696
H 	H 	0.8082	0.0152	0.1	0.629
H 	H 	0.7817	0.1391	0.1795	0.535
H 	H 	0.8214	0.1353	0.1179	0.556
H 	H 	0.73	0.1018	0.1345	0.515
H 	H 	0.787	0.0494	0.2403	0.611
H 	H 	0.7398	0.0161	0.1905	0.605
H 	H 	0.8361	0.9953	0.216	0.678
H 	H 	0.6539	0.9592	0.5287	-0.044
H 	H 	0.7223	0.944	0.6926	-0.006
H 	H 	0.4603	0.9041	0.64	-0.004
H 	H 	0.4392	0.9495	0.7344	-0.066
H 	H 	0.7164	0.8543	0.7055	0.209
H 	H 	0.762	0.8521	0.7658	0.207
H 	H 	0.6982	0.8022	0.7449	0.197
H 	H 	0.4016	0.9517	0.9134	0.489
H 	H 	0.4046	0.005	0.8742	0.479
H 	H 	0.3082	0.9848	0.9	0.486
H 	H 	0.2817	0.8609	0.8205	0.445
H 	H 	0.3214	0.8647	0.8821	0.47
H 	H 	0.23	0.8982	0.8655	0.436
H 	H 	0.287	0.9506	0.7597	0.461
H 	H 	0.2398	0.9839	0.8095	0.465
H 	H 	0.3361	0.0047	0.784	0.478
H 	H 	0.4039	0.4713	0.9592	-0.043
H 	H 	0.4723	0.3074	0.944	-0.008
H 	H 	0.2103	0.36	0.9041	-0.007
H 	H 	0.1892	0.2656	0.9495	-0.088
H 	H 	0.4664	0.2945	0.8543	0.199
H 	H 	0.512	0.2342	0.8521	0.193
H 	H 	0.4482	0.2551	0.8022	0.187
H 	H 	0.1516	0.0866	0.9517	0.561
H 	H 	0.1546	0.1258	0.005	0.552
H 	H 	0.0582	0.1	0.9848	0.542
H 	H 	0.0317	0.1795	0.8609	0.545
H 	H 	0.0714	0.1179	0.8647	0.571
H 	H 	0.98	0.1345	0.8982	0.569
H 	H 	0.037	0.2403	0.9506	0.576
H 	H 	0.9898	0.1905	0.9839	0.615
H 	H 	0.0861	0.216	0.0047	0.596
H 	H 	0.9039	0.5287	0.0408	-0.031
H 	H 	0.9723	0.6926	0.056	0.024
H 	H 	0.7103	0.64	0.0959	-0.001
H 	H 	0.6892	0.7344	0.0505	-0.117
H 	H 	0.9664	0.7055	0.1457	0.164
H 	H 	0.012	0.7658	0.1479	0.122
H 	H 	0.9482	0.7449	0.1978	0.151
H 	H 	0.6516	0.9134	0.0483	0.682
H 	H 	0.6546	0.8742	0.995	0.721
H 	H 	0.5582	0.9	0.0152	0.664
H 	H 	0.5317	0.8205	0.1391	0.566
H 	H 	0.5714	0.8821	0.1353	0.592
H 	H 	0.48	0.8655	0.1018	0.553
H 	H 	0.537	0.7597	0.0494	0.639
H 	H 	0.4898	0.8095	0.0161	0.636
H 	H 	0.5861	0.784	0.9953	0.705
C 	C 	0.0245	0.9285	0.471	0.426
C 	C 	0.9538	0.9308	0.42282	-0.181
C 	C 	0.8628	0.9498	0.43456	0.127
C 	C 	0.7968	0.9547	0.39133	-0.249
C 	C 	0.8218	0.9407	0.33637	0.039
C 	C 	0.9128	0.9217	0.32463	-0.051
C 	C 	0.97882	0.9168	0.36786	0.109
C 	C 	0.6993	0.9733	0.4039	0.505
C 	C 	0.9381	0.9054	0.26505	-0.13
C 	C 	0.8803	0.8718	0.23159	0.184
C 	C 	0.9063	0.8597	0.17633	-0.149
C 	C 	0.9902	0.8812	0.15452	0.341
C 	C 	0.0481	0.9149	0.18798	-0.502
C 	C 	0.022	0.927	0.24324	0.132
C 	C 	0.7927	0.8424	0.2562	-0.607
C 	C 	0.1481	0.9362	0.1647	1.132
C 	C 	0.132	0.9726	0.1149	-1.575
C 	C 	0.2095	0.8852	0.1475	-1.514
C 	C 	0.2011	0.9721	0.2067	-1.53
C 	C 	0.5245	0.0715	0.529	0.503
C 	C 	0.4538	0.0692	0.57718	-0.204
C 	C 	0.3628	0.0502	0.56544	0.108
C 	C 	0.2968	0.0453	0.60867	-0.223
C 	C 	0.3218	0.0593	0.66363	-0.011
C 	C 	0.4128	0.0783	0.67537	0.008
C 	C 	0.47882	0.0832	0.63214	0.008
C 	C 	0.1993	0.0267	0.5961	0.429
C 	C 	0.4381	0.0946	0.73495	-0.241
C 	C 	0.3803	0.1282	0.76841	0.237
C 	C 	0.4063	0.1403	0.82367	-0.178
C 	C 	0.4902	0.1188	0.84548	0.343
C 	C 	0.5481	0.0851	0.81202	-0.646
C 	C 	0.522	0.073	0.75676	0.293
C 	C 	0.2927	0.1576	0.7438	-0.653
C 	C 	0.6481	0.0638	0.8353	1.613
C 	C 	0.632	0.0274	0.8851	-2.327
C 	C 	0.7095	0.1148	0.8525	-2.016
C 	C 	0.7011	0.0279	0.7933	-2.238
C 	C 	0.7745	0.529	0.9285	0.503
C 	C 	0.7038	0.57718	0.9308	-0.203
C 	C 	0.6128	0.56544	0.9498	0.131
C 	C 	0.5468	0.60867	0.9547	-0.244
C 	C 	0.5718	0.66363	0.9407	0.022
C 	C 	0.6628	0.67537	0.9217	-0.022
C 	C 	0.72882	0.63214	0.9168	0.032
C 	C 	0.4493	0.5961	0.9733	0.503
C 	C 	0.6881	0.73495	0.9054	-0.162
C 	C 	0.6303	0.76841	0.8718	0.177
C 	C 	0.6563	0.82367	0.8597	-0.122
C 	C 	0.7402	0.84548	0.8812	0.227
C 	C 	0.7981	0.81202	0.9149	-0.376
C 	C 	0.772	0.75676	0.927	0.131
C 	C 	0.5427	0.7438	0.8424	-0.606
C 	C 	0.8981	0.8353	0.9362	0.886
C 	C 	0.882	0.8851	0.9726	-1.332
C 	C 	0.9595	0.8525	0.8852	-1.14
C 	C 	0.9511	0.7933	0.9721	-1.13
C 	C 	0.2745	0.471	0.0715	0.505
C 	C 	0.2038	0.42282	0.0692	-0.218
C 	C 	0.1128	0.43456	0.0502	0.132
C 	C 	0.0468	0.39133	0.0453	-0.274
C 	C 	0.0718	0.33637	0.0593	0.008
C 	C 	0.1628	0.32463	0.0783	0.001
C 	C 	0.22882	0.36786	0.0832	0.017
C 	C 	0.9493	0.4039	0.0267	0.471
C 	C 	0.1881	0.26505	0.0946	-0.265
C 	C 	0.1303	0.23159	0.1282	0.285
C 	C 	0.1563	0.17633	0.1403	-0.209
C 	C 	0.2402	0.15452	0.1188	0.347
C 	C 	0.2981	0.18798	0.0851	-0.641
C 	C 	0.272	0.24324	0.073	0.296
C 	C 	0.0427	0.2562	0.1576	-0.847
C 	C 	0.3981	0.1647	0.0638	1.562
C 	C 	0.382	0.1149	0.0274	-2.258
C 	C 	0.4595	0.1475	0.1148	-1.944
C 	C 	0.4511	0.2067	0.0279	-2.177
C 	C 	0.9755	0.0715	0.471	0.58
C 	C 	0.0462	0.0692	0.42282	-0.227
C 	C 	0.1372	0.0502	0.43456	0.111
C 	C 	0.2032	0.0453	0.39133	-0.217
C 	C 	0.1782	0.0593	0.33637	-0.031
C 	C 	0.0872	0.0783	0.32463	0.041
C 	C 	0.02118	0.0832	0.36786	-0.072
C 	C 	0.3007	0.0267	0.4039	0.427
C 	C 	0.0619	0.0946	0.26505	-0.286
C 	C 	0.1197	0.1282	0.23159	0.23
C 	C 	0.0937	0.1403	0.17633	-0.142
C 	C 	0.0098	0.1188	0.15452	0.242
C 	C 	0.9519	0.0851	0.18798	-0.571
C 	C 	0.978	0.073	0.24324	0.323
C 	C 	0.2073	0.1576	0.2562	-0.65
C 	C 	0.8519	0.0638	0.1647	1.519
C 	C 	0.868	0.0274	0.1149	-2.215
C 	C 	0.7905	0.1148	0.1475	-1.899
C 	C 	0.7989	0.0279	0.2067	-2.126
C 	C 	0.4755	0.9285	0.529	0.509
C 	C 	0.5462	0.9308	0.57718	-0.204
C 	C 	0.6372	0.9498	0.56544	0.127
C 	C 	0.7032	0.9547	0.60867	-0.236
C 	C 	0.6782	0.9407	0.66363	0.01
C 	C 	0.5872	0.9217	0.67537	-0.008
C 	C 	0.52118	0.9168	0.63214	0.026
C 	C 	0.8007	0.9733	0.5961	0.495
C 	C 	0.5619	0.9054	0.73495	-0.202
C 	C 	0.6197	0.8718	0.76841	0.215
C 	C 	0.5937	0.8597	0.82367	-0.162
C 	C 	0.5098	0.8812	0.84548	0.278
C 	C 	0.4519	0.9149	0.81202	-0.486
C 	C 	0.478	0.927	0.75676	0.198
C 	C 	0.7073	0.8424	0.7438	-0.658
C 	C 	0.3519	0.9362	0.8353	1.175
C 	C 	0.368	0.9726	0.8851	-1.647
C 	C 	0.2905	0.8852	0.8525	-1.576
C 	C 	0.2989	0.9721	0.7933	-1.581
C 	C 	0.2255	0.471	0.9285	0.505
C 	C 	0.2962	0.42282	0.9308	-0.203
C 	C 	0.3872	0.43456	0.9498	0.128
C 	C 	0.4532	0.39133	0.9547	-0.239
C 	C 	0.4282	0.33637	0.9407	0.01
C 	C 	0.3372	0.32463	0.9217	-0.004
C 	C 	0.27118	0.36786	0.9168	0.023
C 	C 	0.5507	0.4039	0.9733	0.502
C 	C 	0.3119	0.26505	0.9054	-0.217
C 	C 	0.3697	0.23159	0.8718	0.212
C 	C 	0.3437	0.17633	0.8597	-0.155
C 	C 	0.2598	0.15452	0.8812	0.304
C 	C 	0.2019	0.18798	0.9149	-0.571
C 	C 	0.228	0.24324	0.927	0.244
C 	C 	0.4573	0.2562	0.8424	-0.638
C 	C 	0.1019	0.1647	0.9362	1.429
C 	C 	0.118	0.1149	0.9726	-1.909
C 	C 	0.0405	0.1475	0.8852	-1.963
C 	C 	0.0489	0.2067	0.9721	-2
C 	C 	0.7255	0.529	0.0715	0.496
C 	C 	0.7962	0.57718	0.0692	-0.185
C 	C 	0.8872	0.56544	0.0502	0.077
C 	C 	0.9532	0.60867	0.0453	-0.156
C 	C 	0.9282	0.66363	0.0593	-0.038
C 	C 	0.8372	0.67537	0.0783	0.021
C 	C 	0.77118	0.63214	0.0832	-0.004
C 	C 	0.0507	0.5961	0.0267	0.374
C 	C 	0.8119	0.73495	0.0946	-0.22
C 	C 	0.8697	0.76841	0.1282	0.197
C 	C 	0.8437	0.82367	0.1403	-0.152
C 	C 	0.7598	0.84548	0.1188	0.335
C 	C 	0.7019	0.81202	0.0851	-0.633
C 	C 	0.728	0.75676	0.073	0.282
C 	C 	0.9573	0.7438	0.1576	-0.487
C 	C 	0.6019	0.8353	0.0638	1.599
C 	C 	0.618	0.8851	0.0274	-2.315
C 	C 	0.5405	0.8525	0.1148	-1.999
C 	C 	0.5489	0.7933	0.0279	-2.22
O 	O 	0.996	0.9367	0.5196	-0.521
O 	O 	0.1083	0.9119	0.4562	-0.736
O 	O 	0.6808	0.0076	0.44235	-0.758
O 	O 	0.6327	0.9545	0.3732	-0.555
O 	O 	0.0137	0.8697	0.0996	-0.38
O 	O 	0.496	0.0633	0.4804	-0.604
O 	O 	0.6083	0.0881	0.5438	-0.757
O 	O 	0.1808	0.9924	0.55765	-0.687
O 	O 	0.1327	0.0455	0.6268	-0.546
O 	O 	0.5137	0.1303	0.9004	-0.38
O 	O 	0.746	0.4804	0.9367	-0.583
O 	O 	0.8583	0.5438	0.9119	-0.713
O 	O 	0.4308	0.55765	0.0076	-0.755
O 	O 	0.3827	0.6268	0.9545	-0.553
O 	O 	0.7637	0.9004	0.8697	-0.326
O 	O 	0.246	0.5196	0.0633	-0.606
O 	O 	0.3583	0.4562	0.0881	-0.756
O 	O 	0.9308	0.44235	0.9924	-0.67
O 	O 	0.8827	0.3732	0.0455	-0.552
O 	O 	0.2637	0.0996	0.1303	-0.38
O 	O 	0.004	0.0633	0.5196	-0.644
O 	O 	0.8917	0.0881	0.4562	-0.766
O 	O 	0.3192	0.9924	0.44235	-0.689
O 	O 	0.3673	0.0455	0.3732	-0.551
O 	O 	0.9863	0.1303	0.0996	-0.333
O 	O 	0.504	0.9367	0.4804	-0.591
O 	O 	0.3917	0.9119	0.5438	-0.749
O 	O 	0.8192	0.0076	0.55765	-0.741
O 	O 	0.8673	0.9545	0.6268	-0.527
O 	O 	0.4863	0.8697	0.9004	-0.349
O 	O 	0.254	0.5196	0.9367	-0.588
O 	O 	0.1417	0.4562	0.9119	-0.736
O 	O 	0.5692	0.44235	0.0076	-0.755
O 	O 	0.6173	0.3732	0.9545	-0.552
O 	O 	0.2363	0.0996	0.8697	-0.365
O 	O 	0.754	0.4804	0.0633	-0.6
O 	O 	0.6417	0.5438	0.0881	-0.752
O 	O 	0.0692	0.55765	0.9924	-0.672
O 	O 	0.1173	0.6268	0.0455	-0.545
O 	O 	0.7363	0.9004	0.1303	-0.374
_end
