data_functionalizedCrystal
_audit_creation_method	'EQeq! by Chris Wilmer'
_symmetry_space_group_name_H-M	'P1'
_symmetry_Int_Tables_number	1
_symmetry_cell_setting	triclinic
loop_
_symmetry_equiv_pos_as_xyz
  x,y,z
_cell_length_a	42.3359
_cell_length_b	42.3359
_cell_length_c	42.3359
_cell_angle_alpha	60
_cell_angle_beta	60
_cell_angle_gamma	60
loop_
_atom_site_label
_atom_site_type_symbol
_atom_site_fract_x
_atom_site_fract_y
_atom_site_fract_z
_atom_site_charge
Cu	Cu	0.81073	0	-0	0.885
Cu	Cu	0.74811	0	-0	0.883
Cu	Cu	-2.54261e-17	0.81073	0.18927	0.893
Cu	Cu	-9.32291e-17	0.74811	0.25189	0.892
Cu	Cu	-8.47537e-17	0.18927	0.81073	0.893
Cu	Cu	-1.69507e-16	0.25189	0.74811	0.892
Cu	Cu	0.18927	0	-0	0.884
Cu	Cu	0.25189	0	-0	0.883
Cu	Cu	0.81073	-8.47537e-18	0.18927	0.893
Cu	Cu	0.74811	-1.69507e-17	0.25189	0.892
Cu	Cu	-1.69507e-17	0.18927	-0	0.884
Cu	Cu	-3.39015e-17	0.25189	-0	0.883
Cu	Cu	-1.35606e-16	0.81073	-0	0.885
Cu	Cu	-6.7803e-17	0.74811	-0	0.883
Cu	Cu	0.18927	-3.39015e-17	0.81073	0.893
Cu	Cu	0.25189	-3.39015e-17	0.74811	0.892
Cu	Cu	0.81073	0.18927	-0	0.893
Cu	Cu	0.74811	0.25189	-0	0.892
Cu	Cu	-1.18655e-16	-3.39015e-17	0.81073	0.885
Cu	Cu	-1.35606e-16	-3.39015e-17	0.74811	0.883
Cu	Cu	-8.47537e-18	-8.47537e-18	0.18927	0.884
Cu	Cu	-2.54261e-17	-1.69507e-17	0.25189	0.883
Cu	Cu	0.18927	0.81073	-0	0.893
Cu	Cu	0.25189	0.74811	-0	0.892
H 	H 	0.6817	0.9801	0.1211	0.046
H 	H 	0.5614	0.9742	0.1854	0.065
H 	H 	0.4983	0.9689	0.2193	0.043
H 	H 	0.9801	0.6817	0.2171	0.048
H 	H 	0.9742	0.5614	0.279	0.066
H 	H 	0.9689	0.4983	0.3135	0.044
H 	H 	0.1211	0.2171	0.6817	0.042
H 	H 	0.1854	0.279	0.5614	0.062
H 	H 	0.2193	0.3135	0.4983	0.041
H 	H 	0.2171	0.1211	0.9801	0.046
H 	H 	0.279	0.1854	0.9742	0.065
H 	H 	0.3135	0.2193	0.9689	0.043
H 	H 	0.6817	0.1211	0.2171	0.042
H 	H 	0.5614	0.1854	0.279	0.062
H 	H 	0.4983	0.2193	0.3135	0.041
H 	H 	0.9801	0.2171	0.1211	0.046
H 	H 	0.9742	0.279	0.1854	0.065
H 	H 	0.9689	0.3135	0.2193	0.043
H 	H 	0.1211	0.6817	0.9801	0.046
H 	H 	0.1854	0.5614	0.9742	0.065
H 	H 	0.2193	0.4983	0.9689	0.043
H 	H 	0.2171	0.9801	0.6817	0.048
H 	H 	0.279	0.9742	0.5614	0.066
H 	H 	0.3135	0.9689	0.4983	0.044
H 	H 	0.6817	0.2171	0.9801	0.048
H 	H 	0.5614	0.279	0.9742	0.066
H 	H 	0.4983	0.3135	0.9689	0.044
H 	H 	0.9801	0.1211	0.6817	0.046
H 	H 	0.9742	0.1854	0.5614	0.065
H 	H 	0.9689	0.2193	0.4983	0.043
H 	H 	0.1211	0.9801	0.2171	0.046
H 	H 	0.1854	0.9742	0.279	0.065
H 	H 	0.2193	0.9689	0.3135	0.043
H 	H 	0.2171	0.6817	0.1211	0.042
H 	H 	0.279	0.5614	0.1854	0.062
H 	H 	0.3135	0.4983	0.2193	0.041
H 	H 	0.0199	0.3183	0.8789	0.045
H 	H 	0.0258	0.4386	0.8146	0.064
H 	H 	0.0311	0.5017	0.7807	0.043
H 	H 	0.3183	0.0199	0.7829	0.043
H 	H 	0.4386	0.0258	0.721	0.063
H 	H 	0.5017	0.0311	0.6865	0.041
H 	H 	0.7829	0.8789	0.3183	0.048
H 	H 	0.721	0.8146	0.4386	0.066
H 	H 	0.6865	0.7807	0.5017	0.044
H 	H 	0.8789	0.7829	0.0199	0.045
H 	H 	0.8146	0.721	0.0258	0.064
H 	H 	0.7807	0.6865	0.0311	0.043
H 	H 	0.8789	0.3183	0.7829	0.048
H 	H 	0.8146	0.4386	0.721	0.066
H 	H 	0.7807	0.5017	0.6865	0.044
H 	H 	0.7829	0.0199	0.8789	0.045
H 	H 	0.721	0.0258	0.8146	0.064
H 	H 	0.6865	0.0311	0.7807	0.043
H 	H 	0.3183	0.8789	0.0199	0.045
H 	H 	0.4386	0.8146	0.0258	0.064
H 	H 	0.5017	0.7807	0.0311	0.043
H 	H 	0.0199	0.7829	0.3183	0.043
H 	H 	0.0258	0.721	0.4386	0.063
H 	H 	0.0311	0.6865	0.5017	0.041
H 	H 	0.7829	0.3183	0.0199	0.043
H 	H 	0.721	0.4386	0.0258	0.063
H 	H 	0.6865	0.5017	0.0311	0.041
H 	H 	0.8789	0.0199	0.3183	0.045
H 	H 	0.8146	0.0258	0.4386	0.064
H 	H 	0.7807	0.0311	0.5017	0.043
H 	H 	0.0199	0.8789	0.7829	0.045
H 	H 	0.0258	0.8146	0.721	0.064
H 	H 	0.0311	0.7807	0.6865	0.043
H 	H 	0.3183	0.7829	0.8789	0.048
H 	H 	0.4386	0.721	0.8146	0.066
H 	H 	0.5017	0.6865	0.7807	0.044
H 	H 	0.3183	0.0199	0.8789	0.045
H 	H 	0.4386	0.0258	0.8146	0.064
H 	H 	0.5017	0.0311	0.7807	0.043
H 	H 	0.0199	0.3183	0.7829	0.043
H 	H 	0.0258	0.4386	0.721	0.063
H 	H 	0.0311	0.5017	0.6865	0.041
H 	H 	0.8789	0.7829	0.3183	0.048
H 	H 	0.8146	0.721	0.4386	0.066
H 	H 	0.7807	0.6865	0.5017	0.044
H 	H 	0.7829	0.8789	0.0199	0.045
H 	H 	0.721	0.8146	0.0258	0.064
H 	H 	0.6865	0.7807	0.0311	0.043
H 	H 	0.3183	0.8789	0.7829	0.048
H 	H 	0.4386	0.8146	0.721	0.066
H 	H 	0.5017	0.7807	0.6865	0.044
H 	H 	0.0199	0.7829	0.8789	0.045
H 	H 	0.0258	0.721	0.8146	0.064
H 	H 	0.0311	0.6865	0.7807	0.043
H 	H 	0.8789	0.3183	0.0199	0.045
H 	H 	0.8146	0.4386	0.0258	0.064
H 	H 	0.7807	0.5017	0.0311	0.043
H 	H 	0.7829	0.0199	0.3183	0.043
H 	H 	0.721	0.0258	0.4386	0.063
H 	H 	0.6865	0.0311	0.5017	0.041
H 	H 	0.3183	0.7829	0.0199	0.043
H 	H 	0.4386	0.721	0.0258	0.063
H 	H 	0.5017	0.6865	0.0311	0.041
H 	H 	0.0199	0.8789	0.3183	0.045
H 	H 	0.0258	0.8146	0.4386	0.064
H 	H 	0.0311	0.7807	0.5017	0.043
H 	H 	0.8789	0.0199	0.7829	0.045
H 	H 	0.8146	0.0258	0.721	0.064
H 	H 	0.7807	0.0311	0.6865	0.043
H 	H 	0.7829	0.3183	0.8789	0.048
H 	H 	0.721	0.4386	0.8146	0.066
H 	H 	0.6865	0.5017	0.7807	0.044
H 	H 	0.9801	0.6817	0.1211	0.046
H 	H 	0.9742	0.5614	0.1854	0.065
H 	H 	0.9689	0.4983	0.2193	0.043
H 	H 	0.6817	0.9801	0.2171	0.048
H 	H 	0.5614	0.9742	0.279	0.066
H 	H 	0.4983	0.9689	0.3135	0.044
H 	H 	0.2171	0.1211	0.6817	0.042
H 	H 	0.279	0.1854	0.5614	0.062
H 	H 	0.3135	0.2193	0.4983	0.041
H 	H 	0.1211	0.2171	0.9801	0.046
H 	H 	0.1854	0.279	0.9742	0.065
H 	H 	0.2193	0.3135	0.9689	0.043
H 	H 	0.1211	0.6817	0.2171	0.042
H 	H 	0.1854	0.5614	0.279	0.062
H 	H 	0.2193	0.4983	0.3135	0.041
H 	H 	0.2171	0.9801	0.1211	0.046
H 	H 	0.279	0.9742	0.1854	0.065
H 	H 	0.3135	0.9689	0.2193	0.043
H 	H 	0.6817	0.1211	0.9801	0.046
H 	H 	0.5614	0.1854	0.9742	0.065
H 	H 	0.4983	0.2193	0.9689	0.043
H 	H 	0.9801	0.2171	0.6817	0.048
H 	H 	0.9742	0.279	0.5614	0.066
H 	H 	0.9689	0.3135	0.4983	0.044
H 	H 	0.2171	0.6817	0.9801	0.048
H 	H 	0.279	0.5614	0.9742	0.066
H 	H 	0.3135	0.4983	0.9689	0.044
H 	H 	0.1211	0.9801	0.6817	0.046
H 	H 	0.1854	0.9742	0.5614	0.065
H 	H 	0.2193	0.9689	0.4983	0.043
H 	H 	0.9801	0.1211	0.2171	0.046
H 	H 	0.9742	0.1854	0.279	0.065
H 	H 	0.9689	0.2193	0.3135	0.043
H 	H 	0.6817	0.2171	0.1211	0.042
H 	H 	0.5614	0.279	0.1854	0.062
H 	H 	0.4983	0.3135	0.2193	0.041
H 	H 	0.7736	0.9884	0.119	0.038
H 	H 	0.9884	0.7736	0.119	0.038
H 	H 	0.119	0.119	0.7736	0.032
H 	H 	0.119	0.119	0.9884	0.036
H 	H 	0.7736	0.119	0.119	0.032
H 	H 	0.9884	0.119	0.119	0.036
H 	H 	0.119	0.7736	0.9884	0.038
H 	H 	0.119	0.9884	0.7736	0.038
H 	H 	0.7736	0.119	0.9884	0.038
H 	H 	0.9884	0.119	0.7736	0.038
H 	H 	0.119	0.9884	0.119	0.036
H 	H 	0.119	0.7736	0.119	0.032
H 	H 	0.0116	0.2264	0.881	0.033
H 	H 	0.2264	0.0116	0.881	0.033
H 	H 	0.881	0.881	0.2264	0.039
H 	H 	0.881	0.881	0.0116	0.036
H 	H 	0.881	0.2264	0.881	0.039
H 	H 	0.881	0.0116	0.881	0.036
H 	H 	0.2264	0.881	0.0116	0.033
H 	H 	0.0116	0.881	0.2264	0.033
H 	H 	0.881	0.2264	0.0116	0.033
H 	H 	0.881	0.0116	0.2264	0.033
H 	H 	0.0116	0.881	0.881	0.036
H 	H 	0.2264	0.881	0.881	0.039
H 	H 	0.376	0.9668	0.2812	0.115
H 	H 	0.9668	0.376	0.376	0.116
H 	H 	0.2812	0.376	0.376	0.113
H 	H 	0.376	0.2812	0.9668	0.115
H 	H 	0.376	0.2812	0.376	0.113
H 	H 	0.9668	0.376	0.2812	0.115
H 	H 	0.2812	0.376	0.9668	0.115
H 	H 	0.376	0.9668	0.376	0.116
H 	H 	0.376	0.376	0.9668	0.116
H 	H 	0.9668	0.2812	0.376	0.115
H 	H 	0.2812	0.9668	0.376	0.115
H 	H 	0.376	0.376	0.2812	0.113
H 	H 	0.0332	0.624	0.7188	0.114
H 	H 	0.624	0.0332	0.624	0.113
H 	H 	0.624	0.7188	0.624	0.116
H 	H 	0.7188	0.624	0.0332	0.114
H 	H 	0.7188	0.624	0.624	0.116
H 	H 	0.624	0.0332	0.7188	0.114
H 	H 	0.624	0.7188	0.0332	0.114
H 	H 	0.0332	0.624	0.624	0.113
H 	H 	0.624	0.624	0.0332	0.113
H 	H 	0.7188	0.0332	0.624	0.114
H 	H 	0.0332	0.7188	0.624	0.114
H 	H 	0.624	0.624	0.7188	0.116
C 	C 	0.74794	0.98598	0.07538	0.356
C 	C 	0.73076	0.9854	0.1133	-0.129
C 	C 	0.69442	0.98082	0.13384	0.009
C 	C 	0.549	0.9716	0.212	-0.089
C 	C 	0.5116	0.9686	0.2322	-0.028
C 	C 	0.98598	0.74794	0.1907	0.356
C 	C 	0.9854	0.73076	0.17054	-0.127
C 	C 	0.98082	0.69442	0.19092	0.009
C 	C 	0.9716	0.549	0.2674	-0.088
C 	C 	0.9686	0.5116	0.2876	-0.028
C 	C 	0.07538	0.1907	0.74794	0.361
C 	C 	0.1133	0.17054	0.73076	-0.138
C 	C 	0.13384	0.19092	0.69442	0.012
C 	C 	0.212	0.2674	0.549	-0.09
C 	C 	0.2322	0.2876	0.5116	-0.03
C 	C 	0.1907	0.07538	0.98598	0.357
C 	C 	0.17054	0.1133	0.9854	-0.131
C 	C 	0.19092	0.13384	0.98082	0.01
C 	C 	0.2674	0.212	0.9716	-0.089
C 	C 	0.2876	0.2322	0.9686	-0.029
C 	C 	0.74794	0.07538	0.1907	0.361
C 	C 	0.73076	0.1133	0.17054	-0.138
C 	C 	0.69442	0.13384	0.19092	0.012
C 	C 	0.549	0.212	0.2674	-0.09
C 	C 	0.5116	0.2322	0.2876	-0.03
C 	C 	0.98598	0.1907	0.07538	0.357
C 	C 	0.9854	0.17054	0.1133	-0.131
C 	C 	0.98082	0.19092	0.13384	0.01
C 	C 	0.9716	0.2674	0.212	-0.089
C 	C 	0.9686	0.2876	0.2322	-0.029
C 	C 	0.07538	0.74794	0.98598	0.356
C 	C 	0.1133	0.73076	0.9854	-0.129
C 	C 	0.13384	0.69442	0.98082	0.009
C 	C 	0.212	0.549	0.9716	-0.089
C 	C 	0.2322	0.5116	0.9686	-0.028
C 	C 	0.1907	0.98598	0.74794	0.356
C 	C 	0.17054	0.9854	0.73076	-0.127
C 	C 	0.19092	0.98082	0.69442	0.009
C 	C 	0.2674	0.9716	0.549	-0.088
C 	C 	0.2876	0.9686	0.5116	-0.028
C 	C 	0.74794	0.1907	0.98598	0.356
C 	C 	0.73076	0.17054	0.9854	-0.127
C 	C 	0.69442	0.19092	0.98082	0.009
C 	C 	0.549	0.2674	0.9716	-0.088
C 	C 	0.5116	0.2876	0.9686	-0.028
C 	C 	0.98598	0.07538	0.74794	0.356
C 	C 	0.9854	0.1133	0.73076	-0.129
C 	C 	0.98082	0.13384	0.69442	0.009
C 	C 	0.9716	0.212	0.549	-0.089
C 	C 	0.9686	0.2322	0.5116	-0.028
C 	C 	0.07538	0.98598	0.1907	0.357
C 	C 	0.1133	0.9854	0.17054	-0.131
C 	C 	0.13384	0.98082	0.19092	0.01
C 	C 	0.212	0.9716	0.2674	-0.089
C 	C 	0.2322	0.9686	0.2876	-0.029
C 	C 	0.1907	0.74794	0.07538	0.361
C 	C 	0.17054	0.73076	0.1133	-0.138
C 	C 	0.19092	0.69442	0.13384	0.012
C 	C 	0.2674	0.549	0.212	-0.09
C 	C 	0.2876	0.5116	0.2322	-0.03
C 	C 	0.01402	0.25206	0.92462	0.358
C 	C 	0.0146	0.26924	0.8867	-0.134
C 	C 	0.01918	0.30558	0.86616	0.011
C 	C 	0.0284	0.451	0.788	-0.089
C 	C 	0.0314	0.4884	0.7678	-0.029
C 	C 	0.25206	0.01402	0.8093	0.36
C 	C 	0.26924	0.0146	0.82946	-0.136
C 	C 	0.30558	0.01918	0.80908	0.011
C 	C 	0.451	0.0284	0.7326	-0.09
C 	C 	0.4884	0.0314	0.7124	-0.03
C 	C 	0.8093	0.92462	0.25206	0.355
C 	C 	0.82946	0.8867	0.26924	-0.126
C 	C 	0.80908	0.86616	0.30558	0.008
C 	C 	0.7326	0.788	0.451	-0.088
C 	C 	0.7124	0.7678	0.4884	-0.028
C 	C 	0.92462	0.8093	0.01402	0.357
C 	C 	0.8867	0.82946	0.0146	-0.131
C 	C 	0.86616	0.80908	0.01918	0.01
C 	C 	0.788	0.7326	0.0284	-0.089
C 	C 	0.7678	0.7124	0.0314	-0.029
C 	C 	0.92462	0.25206	0.8093	0.355
C 	C 	0.8867	0.26924	0.82946	-0.126
C 	C 	0.86616	0.30558	0.80908	0.008
C 	C 	0.788	0.451	0.7326	-0.088
C 	C 	0.7678	0.4884	0.7124	-0.028
C 	C 	0.8093	0.01402	0.92462	0.357
C 	C 	0.82946	0.0146	0.8867	-0.131
C 	C 	0.80908	0.01918	0.86616	0.01
C 	C 	0.7326	0.0284	0.788	-0.089
C 	C 	0.7124	0.0314	0.7678	-0.029
C 	C 	0.25206	0.92462	0.01402	0.358
C 	C 	0.26924	0.8867	0.0146	-0.134
C 	C 	0.30558	0.86616	0.01918	0.011
C 	C 	0.451	0.788	0.0284	-0.089
C 	C 	0.4884	0.7678	0.0314	-0.029
C 	C 	0.01402	0.8093	0.25206	0.36
C 	C 	0.0146	0.82946	0.26924	-0.136
C 	C 	0.01918	0.80908	0.30558	0.011
C 	C 	0.0284	0.7326	0.451	-0.09
C 	C 	0.0314	0.7124	0.4884	-0.03
C 	C 	0.8093	0.25206	0.01402	0.36
C 	C 	0.82946	0.26924	0.0146	-0.136
C 	C 	0.80908	0.30558	0.01918	0.011
C 	C 	0.7326	0.451	0.0284	-0.09
C 	C 	0.7124	0.4884	0.0314	-0.03
C 	C 	0.92462	0.01402	0.25206	0.358
C 	C 	0.8867	0.0146	0.26924	-0.134
C 	C 	0.86616	0.01918	0.30558	0.011
C 	C 	0.788	0.0284	0.451	-0.089
C 	C 	0.7678	0.0314	0.4884	-0.029
C 	C 	0.01402	0.92462	0.8093	0.357
C 	C 	0.0146	0.8867	0.82946	-0.131
C 	C 	0.01918	0.86616	0.80908	0.01
C 	C 	0.0284	0.788	0.7326	-0.089
C 	C 	0.0314	0.7678	0.7124	-0.029
C 	C 	0.25206	0.8093	0.92462	0.355
C 	C 	0.26924	0.82946	0.8867	-0.126
C 	C 	0.30558	0.80908	0.86616	0.008
C 	C 	0.451	0.7326	0.788	-0.088
C 	C 	0.4884	0.7124	0.7678	-0.028
C 	C 	0.25206	0.01402	0.92462	0.358
C 	C 	0.26924	0.0146	0.8867	-0.134
C 	C 	0.30558	0.01918	0.86616	0.011
C 	C 	0.451	0.0284	0.788	-0.089
C 	C 	0.4884	0.0314	0.7678	-0.029
C 	C 	0.01402	0.25206	0.8093	0.36
C 	C 	0.0146	0.26924	0.82946	-0.136
C 	C 	0.01918	0.30558	0.80908	0.011
C 	C 	0.0284	0.451	0.7326	-0.09
C 	C 	0.0314	0.4884	0.7124	-0.03
C 	C 	0.92462	0.8093	0.25206	0.355
C 	C 	0.8867	0.82946	0.26924	-0.126
C 	C 	0.86616	0.80908	0.30558	0.008
C 	C 	0.788	0.7326	0.451	-0.088
C 	C 	0.7678	0.7124	0.4884	-0.028
C 	C 	0.8093	0.92462	0.01402	0.357
C 	C 	0.82946	0.8867	0.0146	-0.131
C 	C 	0.80908	0.86616	0.01918	0.01
C 	C 	0.7326	0.788	0.0284	-0.089
C 	C 	0.7124	0.7678	0.0314	-0.029
C 	C 	0.25206	0.92462	0.8093	0.355
C 	C 	0.26924	0.8867	0.82946	-0.126
C 	C 	0.30558	0.86616	0.80908	0.008
C 	C 	0.451	0.788	0.7326	-0.088
C 	C 	0.4884	0.7678	0.7124	-0.028
C 	C 	0.01402	0.8093	0.92462	0.357
C 	C 	0.0146	0.82946	0.8867	-0.131
C 	C 	0.01918	0.80908	0.86616	0.01
C 	C 	0.0284	0.7326	0.788	-0.089
C 	C 	0.0314	0.7124	0.7678	-0.029
C 	C 	0.92462	0.25206	0.01402	0.358
C 	C 	0.8867	0.26924	0.0146	-0.134
C 	C 	0.86616	0.30558	0.01918	0.011
C 	C 	0.788	0.451	0.0284	-0.089
C 	C 	0.7678	0.4884	0.0314	-0.029
C 	C 	0.8093	0.01402	0.25206	0.36
C 	C 	0.82946	0.0146	0.26924	-0.136
C 	C 	0.80908	0.01918	0.30558	0.011
C 	C 	0.7326	0.0284	0.451	-0.09
C 	C 	0.7124	0.0314	0.4884	-0.03
C 	C 	0.25206	0.8093	0.01402	0.36
C 	C 	0.26924	0.82946	0.0146	-0.136
C 	C 	0.30558	0.80908	0.01918	0.011
C 	C 	0.451	0.7326	0.0284	-0.09
C 	C 	0.4884	0.7124	0.0314	-0.03
C 	C 	0.01402	0.92462	0.25206	0.358
C 	C 	0.0146	0.8867	0.26924	-0.134
C 	C 	0.01918	0.86616	0.30558	0.011
C 	C 	0.0284	0.788	0.451	-0.089
C 	C 	0.0314	0.7678	0.4884	-0.029
C 	C 	0.92462	0.01402	0.8093	0.357
C 	C 	0.8867	0.0146	0.82946	-0.131
C 	C 	0.86616	0.01918	0.80908	0.01
C 	C 	0.788	0.0284	0.7326	-0.089
C 	C 	0.7678	0.0314	0.7124	-0.029
C 	C 	0.8093	0.25206	0.92462	0.355
C 	C 	0.82946	0.26924	0.8867	-0.126
C 	C 	0.80908	0.30558	0.86616	0.008
C 	C 	0.7326	0.451	0.788	-0.088
C 	C 	0.7124	0.4884	0.7678	-0.028
C 	C 	0.98598	0.74794	0.07538	0.356
C 	C 	0.9854	0.73076	0.1133	-0.129
C 	C 	0.98082	0.69442	0.13384	0.009
C 	C 	0.9716	0.549	0.212	-0.089
C 	C 	0.9686	0.5116	0.2322	-0.028
C 	C 	0.74794	0.98598	0.1907	0.356
C 	C 	0.73076	0.9854	0.17054	-0.127
C 	C 	0.69442	0.98082	0.19092	0.009
C 	C 	0.549	0.9716	0.2674	-0.088
C 	C 	0.5116	0.9686	0.2876	-0.028
C 	C 	0.1907	0.07538	0.74794	0.361
C 	C 	0.17054	0.1133	0.73076	-0.138
C 	C 	0.19092	0.13384	0.69442	0.012
C 	C 	0.2674	0.212	0.549	-0.09
C 	C 	0.2876	0.2322	0.5116	-0.03
C 	C 	0.07538	0.1907	0.98598	0.357
C 	C 	0.1133	0.17054	0.9854	-0.131
C 	C 	0.13384	0.19092	0.98082	0.01
C 	C 	0.212	0.2674	0.9716	-0.089
C 	C 	0.2322	0.2876	0.9686	-0.029
C 	C 	0.07538	0.74794	0.1907	0.361
C 	C 	0.1133	0.73076	0.17054	-0.138
C 	C 	0.13384	0.69442	0.19092	0.012
C 	C 	0.212	0.549	0.2674	-0.09
C 	C 	0.2322	0.5116	0.2876	-0.03
C 	C 	0.1907	0.98598	0.07538	0.357
C 	C 	0.17054	0.9854	0.1133	-0.131
C 	C 	0.19092	0.98082	0.13384	0.01
C 	C 	0.2674	0.9716	0.212	-0.089
C 	C 	0.2876	0.9686	0.2322	-0.029
C 	C 	0.74794	0.07538	0.98598	0.356
C 	C 	0.73076	0.1133	0.9854	-0.129
C 	C 	0.69442	0.13384	0.98082	0.009
C 	C 	0.549	0.212	0.9716	-0.089
C 	C 	0.5116	0.2322	0.9686	-0.028
C 	C 	0.98598	0.1907	0.74794	0.356
C 	C 	0.9854	0.17054	0.73076	-0.127
C 	C 	0.98082	0.19092	0.69442	0.009
C 	C 	0.9716	0.2674	0.549	-0.088
C 	C 	0.9686	0.2876	0.5116	-0.028
C 	C 	0.1907	0.74794	0.98598	0.356
C 	C 	0.17054	0.73076	0.9854	-0.127
C 	C 	0.19092	0.69442	0.98082	0.009
C 	C 	0.2674	0.549	0.9716	-0.088
C 	C 	0.2876	0.5116	0.9686	-0.028
C 	C 	0.07538	0.98598	0.74794	0.356
C 	C 	0.1133	0.9854	0.73076	-0.129
C 	C 	0.13384	0.98082	0.69442	0.009
C 	C 	0.212	0.9716	0.549	-0.089
C 	C 	0.2322	0.9686	0.5116	-0.028
C 	C 	0.98598	0.07538	0.1907	0.357
C 	C 	0.9854	0.1133	0.17054	-0.131
C 	C 	0.98082	0.13384	0.19092	0.01
C 	C 	0.9716	0.212	0.2674	-0.089
C 	C 	0.9686	0.2322	0.2876	-0.029
C 	C 	0.74794	0.1907	0.07538	0.361
C 	C 	0.73076	0.17054	0.1133	-0.138
C 	C 	0.69442	0.19092	0.13384	0.012
C 	C 	0.549	0.2674	0.212	-0.09
C 	C 	0.5116	0.2876	0.2322	-0.03
C 	C 	0.74833	0.98661	0.13253	0.075
C 	C 	0.67655	0.97739	0.17303	-0.012
C 	C 	0.63784	0.97496	0.1936	0.009
C 	C 	0.60738	0.97302	0.2098	-0.037
C 	C 	0.56606	0.97034	0.2318	0.066
C 	C 	0.49452	0.96548	0.27	0.002
C 	C 	0.45456	0.96424	0.2906	0.018
C 	C 	0.42058	0.96322	0.3081	-0.082
C 	C 	0.383	0.962	0.3275	0.177
C 	C 	0.98661	0.74833	0.13253	0.075
C 	C 	0.97739	0.67655	0.17303	-0.012
C 	C 	0.97496	0.63784	0.1936	0.009
C 	C 	0.97302	0.60738	0.2098	-0.037
C 	C 	0.97034	0.56606	0.2318	0.066
C 	C 	0.96548	0.49452	0.27	0.002
C 	C 	0.96424	0.45456	0.2906	0.018
C 	C 	0.96322	0.42058	0.3081	-0.082
C 	C 	0.962	0.383	0.3275	0.177
C 	C 	0.13253	0.13253	0.74833	0.081
C 	C 	0.17303	0.17303	0.67655	-0.019
C 	C 	0.1936	0.1936	0.63784	0.007
C 	C 	0.2098	0.2098	0.60738	-0.042
C 	C 	0.2318	0.2318	0.56606	0.064
C 	C 	0.27	0.27	0.49452	0.001
C 	C 	0.2906	0.2906	0.45456	0.015
C 	C 	0.3081	0.3081	0.42058	-0.084
C 	C 	0.3275	0.3275	0.383	0.175
C 	C 	0.13253	0.13253	0.98661	0.077
C 	C 	0.17303	0.17303	0.97739	-0.014
C 	C 	0.1936	0.1936	0.97496	0.008
C 	C 	0.2098	0.2098	0.97302	-0.038
C 	C 	0.2318	0.2318	0.97034	0.065
C 	C 	0.27	0.27	0.96548	0.002
C 	C 	0.2906	0.2906	0.96424	0.017
C 	C 	0.3081	0.3081	0.96322	-0.083
C 	C 	0.3275	0.3275	0.962	0.177
C 	C 	0.74833	0.13253	0.13253	0.081
C 	C 	0.67655	0.17303	0.17303	-0.019
C 	C 	0.63784	0.1936	0.1936	0.007
C 	C 	0.60738	0.2098	0.2098	-0.042
C 	C 	0.56606	0.2318	0.2318	0.064
C 	C 	0.49452	0.27	0.27	0.001
C 	C 	0.45456	0.2906	0.2906	0.015
C 	C 	0.42058	0.3081	0.3081	-0.084
C 	C 	0.383	0.3275	0.3275	0.175
C 	C 	0.98661	0.13253	0.13253	0.077
C 	C 	0.97739	0.17303	0.17303	-0.014
C 	C 	0.97496	0.1936	0.1936	0.008
C 	C 	0.97302	0.2098	0.2098	-0.038
C 	C 	0.97034	0.2318	0.2318	0.065
C 	C 	0.96548	0.27	0.27	0.002
C 	C 	0.96424	0.2906	0.2906	0.017
C 	C 	0.96322	0.3081	0.3081	-0.083
C 	C 	0.962	0.3275	0.3275	0.177
C 	C 	0.13253	0.74833	0.98661	0.075
C 	C 	0.17303	0.67655	0.97739	-0.012
C 	C 	0.1936	0.63784	0.97496	0.009
C 	C 	0.2098	0.60738	0.97302	-0.037
C 	C 	0.2318	0.56606	0.97034	0.066
C 	C 	0.27	0.49452	0.96548	0.002
C 	C 	0.2906	0.45456	0.96424	0.018
C 	C 	0.3081	0.42058	0.96322	-0.082
C 	C 	0.3275	0.383	0.962	0.177
C 	C 	0.13253	0.98661	0.74833	0.075
C 	C 	0.17303	0.97739	0.67655	-0.012
C 	C 	0.1936	0.97496	0.63784	0.009
C 	C 	0.2098	0.97302	0.60738	-0.037
C 	C 	0.2318	0.97034	0.56606	0.066
C 	C 	0.27	0.96548	0.49452	0.002
C 	C 	0.2906	0.96424	0.45456	0.018
C 	C 	0.3081	0.96322	0.42058	-0.082
C 	C 	0.3275	0.962	0.383	0.177
C 	C 	0.74833	0.13253	0.98661	0.075
C 	C 	0.67655	0.17303	0.97739	-0.012
C 	C 	0.63784	0.1936	0.97496	0.009
C 	C 	0.60738	0.2098	0.97302	-0.037
C 	C 	0.56606	0.2318	0.97034	0.066
C 	C 	0.49452	0.27	0.96548	0.002
C 	C 	0.45456	0.2906	0.96424	0.018
C 	C 	0.42058	0.3081	0.96322	-0.082
C 	C 	0.383	0.3275	0.962	0.177
C 	C 	0.98661	0.13253	0.74833	0.075
C 	C 	0.97739	0.17303	0.67655	-0.012
C 	C 	0.97496	0.1936	0.63784	0.009
C 	C 	0.97302	0.2098	0.60738	-0.037
C 	C 	0.97034	0.2318	0.56606	0.066
C 	C 	0.96548	0.27	0.49452	0.002
C 	C 	0.96424	0.2906	0.45456	0.018
C 	C 	0.96322	0.3081	0.42058	-0.082
C 	C 	0.962	0.3275	0.383	0.177
C 	C 	0.13253	0.98661	0.13253	0.077
C 	C 	0.17303	0.97739	0.17303	-0.014
C 	C 	0.1936	0.97496	0.1936	0.008
C 	C 	0.2098	0.97302	0.2098	-0.038
C 	C 	0.2318	0.97034	0.2318	0.065
C 	C 	0.27	0.96548	0.27	0.002
C 	C 	0.2906	0.96424	0.2906	0.017
C 	C 	0.3081	0.96322	0.3081	-0.083
C 	C 	0.3275	0.962	0.3275	0.177
C 	C 	0.13253	0.74833	0.13253	0.081
C 	C 	0.17303	0.67655	0.17303	-0.019
C 	C 	0.1936	0.63784	0.1936	0.007
C 	C 	0.2098	0.60738	0.2098	-0.042
C 	C 	0.2318	0.56606	0.2318	0.064
C 	C 	0.27	0.49452	0.27	0.001
C 	C 	0.2906	0.45456	0.2906	0.015
C 	C 	0.3081	0.42058	0.3081	-0.084
C 	C 	0.3275	0.383	0.3275	0.175
C 	C 	0.01339	0.25167	0.86747	0.079
C 	C 	0.02261	0.32345	0.82697	-0.017
C 	C 	0.02504	0.36216	0.8064	0.008
C 	C 	0.02698	0.39262	0.7902	-0.04
C 	C 	0.02966	0.43394	0.7682	0.064
C 	C 	0.03452	0.50548	0.73	0.001
C 	C 	0.03576	0.54544	0.7094	0.015
C 	C 	0.03678	0.57942	0.6919	-0.084
C 	C 	0.038	0.617	0.6725	0.176
C 	C 	0.25167	0.01339	0.86747	0.079
C 	C 	0.32345	0.02261	0.82697	-0.017
C 	C 	0.36216	0.02504	0.8064	0.008
C 	C 	0.39262	0.02698	0.7902	-0.04
C 	C 	0.43394	0.02966	0.7682	0.064
C 	C 	0.50548	0.03452	0.73	0.001
C 	C 	0.54544	0.03576	0.7094	0.015
C 	C 	0.57942	0.03678	0.6919	-0.084
C 	C 	0.617	0.038	0.6725	0.176
C 	C 	0.86747	0.86747	0.25167	0.074
C 	C 	0.82697	0.82697	0.32345	-0.011
C 	C 	0.8064	0.8064	0.36216	0.009
C 	C 	0.7902	0.7902	0.39262	-0.037
C 	C 	0.7682	0.7682	0.43394	0.066
C 	C 	0.73	0.73	0.50548	0.002
C 	C 	0.7094	0.7094	0.54544	0.018
C 	C 	0.6919	0.6919	0.57942	-0.082
C 	C 	0.6725	0.6725	0.617	0.178
C 	C 	0.86747	0.86747	0.01339	0.076
C 	C 	0.82697	0.82697	0.02261	-0.014
C 	C 	0.8064	0.8064	0.02504	0.008
C 	C 	0.7902	0.7902	0.02698	-0.039
C 	C 	0.7682	0.7682	0.02966	0.065
C 	C 	0.73	0.73	0.03452	0.001
C 	C 	0.7094	0.7094	0.03576	0.016
C 	C 	0.6919	0.6919	0.03678	-0.083
C 	C 	0.6725	0.6725	0.038	0.176
C 	C 	0.86747	0.25167	0.86747	0.074
C 	C 	0.82697	0.32345	0.82697	-0.011
C 	C 	0.8064	0.36216	0.8064	0.009
C 	C 	0.7902	0.39262	0.7902	-0.037
C 	C 	0.7682	0.43394	0.7682	0.066
C 	C 	0.73	0.50548	0.73	0.002
C 	C 	0.7094	0.54544	0.7094	0.018
C 	C 	0.6919	0.57942	0.6919	-0.082
C 	C 	0.6725	0.617	0.6725	0.178
C 	C 	0.86747	0.01339	0.86747	0.076
C 	C 	0.82697	0.02261	0.82697	-0.014
C 	C 	0.8064	0.02504	0.8064	0.008
C 	C 	0.7902	0.02698	0.7902	-0.039
C 	C 	0.7682	0.02966	0.7682	0.065
C 	C 	0.73	0.03452	0.73	0.001
C 	C 	0.7094	0.03576	0.7094	0.016
C 	C 	0.6919	0.03678	0.6919	-0.083
C 	C 	0.6725	0.038	0.6725	0.176
C 	C 	0.25167	0.86747	0.01339	0.079
C 	C 	0.32345	0.82697	0.02261	-0.017
C 	C 	0.36216	0.8064	0.02504	0.008
C 	C 	0.39262	0.7902	0.02698	-0.04
C 	C 	0.43394	0.7682	0.02966	0.064
C 	C 	0.50548	0.73	0.03452	0.001
C 	C 	0.54544	0.7094	0.03576	0.015
C 	C 	0.57942	0.6919	0.03678	-0.084
C 	C 	0.617	0.6725	0.038	0.176
C 	C 	0.01339	0.86747	0.25167	0.079
C 	C 	0.02261	0.82697	0.32345	-0.017
C 	C 	0.02504	0.8064	0.36216	0.008
C 	C 	0.02698	0.7902	0.39262	-0.04
C 	C 	0.02966	0.7682	0.43394	0.064
C 	C 	0.03452	0.73	0.50548	0.001
C 	C 	0.03576	0.7094	0.54544	0.015
C 	C 	0.03678	0.6919	0.57942	-0.084
C 	C 	0.038	0.6725	0.617	0.176
C 	C 	0.86747	0.25167	0.01339	0.079
C 	C 	0.82697	0.32345	0.02261	-0.017
C 	C 	0.8064	0.36216	0.02504	0.008
C 	C 	0.7902	0.39262	0.02698	-0.04
C 	C 	0.7682	0.43394	0.02966	0.064
C 	C 	0.73	0.50548	0.03452	0.001
C 	C 	0.7094	0.54544	0.03576	0.015
C 	C 	0.6919	0.57942	0.03678	-0.084
C 	C 	0.6725	0.617	0.038	0.176
C 	C 	0.86747	0.01339	0.25167	0.079
C 	C 	0.82697	0.02261	0.32345	-0.017
C 	C 	0.8064	0.02504	0.36216	0.008
C 	C 	0.7902	0.02698	0.39262	-0.04
C 	C 	0.7682	0.02966	0.43394	0.064
C 	C 	0.73	0.03452	0.50548	0.001
C 	C 	0.7094	0.03576	0.54544	0.015
C 	C 	0.6919	0.03678	0.57942	-0.084
C 	C 	0.6725	0.038	0.617	0.176
C 	C 	0.01339	0.86747	0.86747	0.076
C 	C 	0.02261	0.82697	0.82697	-0.014
C 	C 	0.02504	0.8064	0.8064	0.008
C 	C 	0.02698	0.7902	0.7902	-0.039
C 	C 	0.02966	0.7682	0.7682	0.065
C 	C 	0.03452	0.73	0.73	0.001
C 	C 	0.03576	0.7094	0.7094	0.016
C 	C 	0.03678	0.6919	0.6919	-0.083
C 	C 	0.038	0.6725	0.6725	0.176
C 	C 	0.25167	0.86747	0.86747	0.074
C 	C 	0.32345	0.82697	0.82697	-0.011
C 	C 	0.36216	0.8064	0.8064	0.009
C 	C 	0.39262	0.7902	0.7902	-0.037
C 	C 	0.43394	0.7682	0.7682	0.066
C 	C 	0.50548	0.73	0.73	0.002
C 	C 	0.54544	0.7094	0.7094	0.018
C 	C 	0.57942	0.6919	0.6919	-0.082
C 	C 	0.617	0.6725	0.6725	0.178
C 	C 	0.364	0.96404	0.30796	-0.232
C 	C 	0.96404	0.364	0.364	-0.232
C 	C 	0.30796	0.364	0.364	-0.232
C 	C 	0.364	0.30796	0.96404	-0.232
C 	C 	0.364	0.30796	0.364	-0.232
C 	C 	0.96404	0.364	0.30796	-0.232
C 	C 	0.30796	0.364	0.96404	-0.232
C 	C 	0.364	0.96404	0.364	-0.232
C 	C 	0.364	0.364	0.96404	-0.232
C 	C 	0.96404	0.30796	0.364	-0.232
C 	C 	0.30796	0.96404	0.364	-0.232
C 	C 	0.364	0.364	0.30796	-0.232
C 	C 	0.03596	0.636	0.69204	-0.232
C 	C 	0.636	0.03596	0.636	-0.232
C 	C 	0.636	0.69204	0.636	-0.232
C 	C 	0.69204	0.636	0.03596	-0.232
C 	C 	0.69204	0.636	0.636	-0.232
C 	C 	0.636	0.03596	0.69204	-0.232
C 	C 	0.636	0.69204	0.03596	-0.232
C 	C 	0.03596	0.636	0.636	-0.232
C 	C 	0.636	0.636	0.03596	-0.232
C 	C 	0.69204	0.03596	0.636	-0.232
C 	C 	0.03596	0.69204	0.636	-0.232
C 	C 	0.636	0.636	0.69204	-0.232
O 	O 	0.78219	0.99109	0.05563	-0.379
O 	O 	0.73006	0.99042	0.05622	-0.394
O 	O 	0.99109	0.78219	0.17109	-0.376
O 	O 	0.99042	0.73006	0.2233	-0.39
O 	O 	0.05563	0.17109	0.78219	-0.391
O 	O 	0.05622	0.2233	0.73006	-0.405
O 	O 	0.17109	0.05563	0.99109	-0.381
O 	O 	0.2233	0.05622	0.99042	-0.395
O 	O 	0.78219	0.05563	0.17109	-0.391
O 	O 	0.73006	0.05622	0.2233	-0.405
O 	O 	0.99109	0.17109	0.05563	-0.381
O 	O 	0.99042	0.2233	0.05622	-0.395
O 	O 	0.05563	0.78219	0.99109	-0.379
O 	O 	0.05622	0.73006	0.99042	-0.394
O 	O 	0.17109	0.99109	0.78219	-0.376
O 	O 	0.2233	0.99042	0.73006	-0.39
O 	O 	0.78219	0.17109	0.99109	-0.376
O 	O 	0.73006	0.2233	0.99042	-0.39
O 	O 	0.99109	0.05563	0.78219	-0.379
O 	O 	0.99042	0.05622	0.73006	-0.394
O 	O 	0.05563	0.99109	0.17109	-0.381
O 	O 	0.05622	0.99042	0.2233	-0.395
O 	O 	0.17109	0.78219	0.05563	-0.391
O 	O 	0.2233	0.73006	0.05622	-0.405
O 	O 	0.00891	0.21781	0.94437	-0.382
O 	O 	0.00958	0.26994	0.94378	-0.396
O 	O 	0.21781	0.00891	0.82891	-0.39
O 	O 	0.26994	0.00958	0.7767	-0.405
O 	O 	0.82891	0.94437	0.21781	-0.375
O 	O 	0.7767	0.94378	0.26994	-0.39
O 	O 	0.94437	0.82891	0.00891	-0.38
O 	O 	0.94378	0.7767	0.00958	-0.395
O 	O 	0.94437	0.21781	0.82891	-0.375
O 	O 	0.94378	0.26994	0.7767	-0.39
O 	O 	0.82891	0.00891	0.94437	-0.38
O 	O 	0.7767	0.00958	0.94378	-0.395
O 	O 	0.21781	0.94437	0.00891	-0.382
O 	O 	0.26994	0.94378	0.00958	-0.396
O 	O 	0.00891	0.82891	0.21781	-0.39
O 	O 	0.00958	0.7767	0.26994	-0.405
O 	O 	0.82891	0.21781	0.00891	-0.39
O 	O 	0.7767	0.26994	0.00958	-0.405
O 	O 	0.94437	0.00891	0.21781	-0.382
O 	O 	0.94378	0.00958	0.26994	-0.396
O 	O 	0.00891	0.94437	0.82891	-0.38
O 	O 	0.00958	0.94378	0.7767	-0.395
O 	O 	0.21781	0.82891	0.94437	-0.375
O 	O 	0.26994	0.7767	0.94378	-0.39
O 	O 	0.21781	0.00891	0.94437	-0.382
O 	O 	0.26994	0.00958	0.94378	-0.396
O 	O 	0.00891	0.21781	0.82891	-0.39
O 	O 	0.00958	0.26994	0.7767	-0.405
O 	O 	0.94437	0.82891	0.21781	-0.375
O 	O 	0.94378	0.7767	0.26994	-0.39
O 	O 	0.82891	0.94437	0.00891	-0.38
O 	O 	0.7767	0.94378	0.00958	-0.395
O 	O 	0.21781	0.94437	0.82891	-0.375
O 	O 	0.26994	0.94378	0.7767	-0.39
O 	O 	0.00891	0.82891	0.94437	-0.38
O 	O 	0.00958	0.7767	0.94378	-0.395
O 	O 	0.94437	0.21781	0.00891	-0.382
O 	O 	0.94378	0.26994	0.00958	-0.396
O 	O 	0.82891	0.00891	0.21781	-0.39
O 	O 	0.7767	0.00958	0.26994	-0.405
O 	O 	0.21781	0.82891	0.00891	-0.39
O 	O 	0.26994	0.7767	0.00958	-0.405
O 	O 	0.00891	0.94437	0.21781	-0.382
O 	O 	0.00958	0.94378	0.26994	-0.396
O 	O 	0.94437	0.00891	0.82891	-0.38
O 	O 	0.94378	0.00958	0.7767	-0.395
O 	O 	0.82891	0.21781	0.94437	-0.375
O 	O 	0.7767	0.26994	0.94378	-0.39
O 	O 	0.99109	0.78219	0.05563	-0.379
O 	O 	0.99042	0.73006	0.05622	-0.394
O 	O 	0.78219	0.99109	0.17109	-0.376
O 	O 	0.73006	0.99042	0.2233	-0.39
O 	O 	0.17109	0.05563	0.78219	-0.391
O 	O 	0.2233	0.05622	0.73006	-0.405
O 	O 	0.05563	0.17109	0.99109	-0.381
O 	O 	0.05622	0.2233	0.99042	-0.395
O 	O 	0.05563	0.78219	0.17109	-0.391
O 	O 	0.05622	0.73006	0.2233	-0.405
O 	O 	0.17109	0.99109	0.05563	-0.381
O 	O 	0.2233	0.99042	0.05622	-0.395
O 	O 	0.78219	0.05563	0.99109	-0.379
O 	O 	0.73006	0.05622	0.99042	-0.394
O 	O 	0.99109	0.17109	0.78219	-0.376
O 	O 	0.99042	0.2233	0.73006	-0.39
O 	O 	0.17109	0.78219	0.99109	-0.376
O 	O 	0.2233	0.73006	0.99042	-0.39
O 	O 	0.05563	0.99109	0.78219	-0.379
O 	O 	0.05622	0.99042	0.73006	-0.394
O 	O 	0.99109	0.05563	0.17109	-0.381
O 	O 	0.99042	0.05622	0.2233	-0.395
O 	O 	0.78219	0.17109	0.05563	-0.391
O 	O 	0.73006	0.2233	0.05622	-0.405
_end
