data_functionalizedCrystal
_audit_creation_method	'EQeq! by Chris Wilmer'
_symmetry_space_group_name_H-M	'P1'
_symmetry_Int_Tables_number	1
_symmetry_cell_setting	triclinic
loop_
_symmetry_equiv_pos_as_xyz
  x,y,z
_cell_length_a	41.8275
_cell_length_b	41.8275
_cell_length_c	41.8275
_cell_angle_alpha	60
_cell_angle_beta	60
_cell_angle_gamma	60
loop_
_atom_site_label
_atom_site_type_symbol
_atom_site_fract_x
_atom_site_fract_y
_atom_site_fract_z
_atom_site_charge
Cu	Cu	0.80926	0	-0	0.896
Cu	Cu	0.746	0	-0	0.891
Cu	Cu	-1.01064e-16	0.80926	0.19074	0.906
Cu	Cu	-7.03055e-17	0.746	0.254	0.9
Cu	Cu	-5.27291e-17	0.19074	0.80926	0.906
Cu	Cu	-3.51528e-17	0.254	0.746	0.9
Cu	Cu	0.19074	0	-0	0.895
Cu	Cu	0.254	0	-0	0.89
Cu	Cu	0.80926	8.78819e-18	0.19074	0.906
Cu	Cu	0.746	0	0.254	0.9
Cu	Cu	-1.75764e-17	0.19074	-0	0.895
Cu	Cu	-0	0.254	-0	0.89
Cu	Cu	-7.03055e-17	0.80926	-0	0.896
Cu	Cu	-0	0.746	-0	0.891
Cu	Cu	0.19074	0	0.80926	0.906
Cu	Cu	0.254	0	0.746	0.9
Cu	Cu	0.80926	0.19074	-0	0.906
Cu	Cu	0.746	0.254	-0	0.9
Cu	Cu	-5.27291e-17	0	0.80926	0.896
Cu	Cu	-0	0	0.746	0.891
Cu	Cu	-2.19705e-17	8.78819e-18	0.19074	0.895
Cu	Cu	-0	0	0.254	0.89
Cu	Cu	0.19074	0.80926	-0	0.906
Cu	Cu	0.254	0.746	-0	0.9
H 	H 	0.6809	0.9761	0.1231	0.057
H 	H 	0.5687	0.9515	0.1915	0.059
H 	H 	0.5088	0.9404	0.227	0.049
H 	H 	0.9761	0.6809	0.2199	0.058
H 	H 	0.9515	0.5687	0.2883	0.059
H 	H 	0.9404	0.5088	0.3238	0.049
H 	H 	0.1231	0.2199	0.6809	0.052
H 	H 	0.1915	0.2883	0.5687	0.055
H 	H 	0.227	0.3238	0.5088	0.046
H 	H 	0.2199	0.1231	0.9761	0.055
H 	H 	0.2883	0.1915	0.9515	0.057
H 	H 	0.3238	0.227	0.9404	0.048
H 	H 	0.6809	0.1231	0.2199	0.052
H 	H 	0.5687	0.1915	0.2883	0.055
H 	H 	0.5088	0.227	0.3238	0.046
H 	H 	0.9761	0.2199	0.1231	0.055
H 	H 	0.9515	0.2883	0.1915	0.057
H 	H 	0.9404	0.3238	0.227	0.048
H 	H 	0.1231	0.6809	0.9761	0.056
H 	H 	0.1915	0.5687	0.9515	0.058
H 	H 	0.227	0.5088	0.9404	0.048
H 	H 	0.2199	0.9761	0.6809	0.058
H 	H 	0.2883	0.9515	0.5687	0.059
H 	H 	0.3238	0.9404	0.5088	0.049
H 	H 	0.6809	0.2199	0.9761	0.058
H 	H 	0.5687	0.2883	0.9515	0.059
H 	H 	0.5088	0.3238	0.9404	0.049
H 	H 	0.9761	0.1231	0.6809	0.056
H 	H 	0.9515	0.1915	0.5687	0.058
H 	H 	0.9404	0.227	0.5088	0.048
H 	H 	0.1231	0.9761	0.2199	0.055
H 	H 	0.1915	0.9515	0.2883	0.057
H 	H 	0.227	0.9404	0.3238	0.048
H 	H 	0.2199	0.6809	0.1231	0.052
H 	H 	0.2883	0.5687	0.1915	0.055
H 	H 	0.3238	0.5088	0.227	0.046
H 	H 	0.0239	0.3191	0.8769	0.054
H 	H 	0.0485	0.4313	0.8085	0.057
H 	H 	0.0596	0.4912	0.773	0.047
H 	H 	0.3191	0.0239	0.7801	0.053
H 	H 	0.4313	0.0485	0.7117	0.055
H 	H 	0.4912	0.0596	0.6762	0.046
H 	H 	0.7801	0.8769	0.3191	0.058
H 	H 	0.7117	0.8085	0.4313	0.059
H 	H 	0.6762	0.773	0.4912	0.049
H 	H 	0.8769	0.7801	0.0239	0.055
H 	H 	0.8085	0.7117	0.0485	0.057
H 	H 	0.773	0.6762	0.0596	0.047
H 	H 	0.8769	0.3191	0.7801	0.058
H 	H 	0.8085	0.4313	0.7117	0.059
H 	H 	0.773	0.4912	0.6762	0.049
H 	H 	0.7801	0.0239	0.8769	0.055
H 	H 	0.7117	0.0485	0.8085	0.057
H 	H 	0.6762	0.0596	0.773	0.047
H 	H 	0.3191	0.8769	0.0239	0.054
H 	H 	0.4313	0.8085	0.0485	0.057
H 	H 	0.4912	0.773	0.0596	0.047
H 	H 	0.0239	0.7801	0.3191	0.053
H 	H 	0.0485	0.7117	0.4313	0.055
H 	H 	0.0596	0.6762	0.4912	0.046
H 	H 	0.7801	0.3191	0.0239	0.053
H 	H 	0.7117	0.4313	0.0485	0.055
H 	H 	0.6762	0.4912	0.0596	0.046
H 	H 	0.8769	0.0239	0.3191	0.054
H 	H 	0.8085	0.0485	0.4313	0.057
H 	H 	0.773	0.0596	0.4912	0.047
H 	H 	0.0239	0.8769	0.7801	0.055
H 	H 	0.0485	0.8085	0.7117	0.057
H 	H 	0.0596	0.773	0.6762	0.047
H 	H 	0.3191	0.7801	0.8769	0.058
H 	H 	0.4313	0.7117	0.8085	0.059
H 	H 	0.4912	0.6762	0.773	0.049
H 	H 	0.3191	0.0239	0.8769	0.054
H 	H 	0.4313	0.0485	0.8085	0.057
H 	H 	0.4912	0.0596	0.773	0.047
H 	H 	0.0239	0.3191	0.7801	0.053
H 	H 	0.0485	0.4313	0.7117	0.055
H 	H 	0.0596	0.4912	0.6762	0.046
H 	H 	0.8769	0.7801	0.3191	0.058
H 	H 	0.8085	0.7117	0.4313	0.059
H 	H 	0.773	0.6762	0.4912	0.049
H 	H 	0.7801	0.8769	0.0239	0.055
H 	H 	0.7117	0.8085	0.0485	0.057
H 	H 	0.6762	0.773	0.0596	0.047
H 	H 	0.3191	0.8769	0.7801	0.058
H 	H 	0.4313	0.8085	0.7117	0.059
H 	H 	0.4912	0.773	0.6762	0.049
H 	H 	0.0239	0.7801	0.8769	0.055
H 	H 	0.0485	0.7117	0.8085	0.057
H 	H 	0.0596	0.6762	0.773	0.047
H 	H 	0.8769	0.3191	0.0239	0.054
H 	H 	0.8085	0.4313	0.0485	0.057
H 	H 	0.773	0.4912	0.0596	0.047
H 	H 	0.7801	0.0239	0.3191	0.053
H 	H 	0.7117	0.0485	0.4313	0.055
H 	H 	0.6762	0.0596	0.4912	0.046
H 	H 	0.3191	0.7801	0.0239	0.053
H 	H 	0.4313	0.7117	0.0485	0.055
H 	H 	0.4912	0.6762	0.0596	0.046
H 	H 	0.0239	0.8769	0.3191	0.054
H 	H 	0.0485	0.8085	0.4313	0.057
H 	H 	0.0596	0.773	0.4912	0.047
H 	H 	0.8769	0.0239	0.7801	0.055
H 	H 	0.8085	0.0485	0.7117	0.057
H 	H 	0.773	0.0596	0.6762	0.047
H 	H 	0.7801	0.3191	0.8769	0.058
H 	H 	0.7117	0.4313	0.8085	0.059
H 	H 	0.6762	0.4912	0.773	0.049
H 	H 	0.9761	0.6809	0.1231	0.056
H 	H 	0.9515	0.5687	0.1915	0.058
H 	H 	0.9404	0.5088	0.227	0.048
H 	H 	0.6809	0.9761	0.2199	0.058
H 	H 	0.5687	0.9515	0.2883	0.059
H 	H 	0.5088	0.9404	0.3238	0.049
H 	H 	0.2199	0.1231	0.6809	0.052
H 	H 	0.2883	0.1915	0.5687	0.055
H 	H 	0.3238	0.227	0.5088	0.046
H 	H 	0.1231	0.2199	0.9761	0.055
H 	H 	0.1915	0.2883	0.9515	0.057
H 	H 	0.227	0.3238	0.9404	0.048
H 	H 	0.1231	0.6809	0.2199	0.052
H 	H 	0.1915	0.5687	0.2883	0.055
H 	H 	0.227	0.5088	0.3238	0.046
H 	H 	0.2199	0.9761	0.1231	0.055
H 	H 	0.2883	0.9515	0.1915	0.057
H 	H 	0.3238	0.9404	0.227	0.048
H 	H 	0.6809	0.1231	0.9761	0.056
H 	H 	0.5687	0.1915	0.9515	0.058
H 	H 	0.5088	0.227	0.9404	0.048
H 	H 	0.9761	0.2199	0.6809	0.058
H 	H 	0.9515	0.2883	0.5687	0.059
H 	H 	0.9404	0.3238	0.5088	0.049
H 	H 	0.2199	0.6809	0.9761	0.058
H 	H 	0.2883	0.5687	0.9515	0.059
H 	H 	0.3238	0.5088	0.9404	0.049
H 	H 	0.1231	0.9761	0.6809	0.056
H 	H 	0.1915	0.9515	0.5687	0.058
H 	H 	0.227	0.9404	0.5088	0.048
H 	H 	0.9761	0.1231	0.2199	0.055
H 	H 	0.9515	0.1915	0.2883	0.057
H 	H 	0.9404	0.227	0.3238	0.048
H 	H 	0.6809	0.2199	0.1231	0.052
H 	H 	0.5687	0.2883	0.1915	0.055
H 	H 	0.5088	0.3238	0.227	0.046
H 	H 	0.7709	0.9913	0.1189	0.052
H 	H 	0.9913	0.7709	0.1189	0.052
H 	H 	0.1189	0.1189	0.7709	0.046
H 	H 	0.1189	0.1189	0.9913	0.05
H 	H 	0.7709	0.1189	0.1189	0.046
H 	H 	0.9913	0.1189	0.1189	0.05
H 	H 	0.1189	0.7709	0.9913	0.052
H 	H 	0.1189	0.9913	0.7709	0.052
H 	H 	0.7709	0.1189	0.9913	0.052
H 	H 	0.9913	0.1189	0.7709	0.052
H 	H 	0.1189	0.9913	0.1189	0.05
H 	H 	0.1189	0.7709	0.1189	0.046
H 	H 	0.0087	0.2291	0.8811	0.047
H 	H 	0.2291	0.0087	0.8811	0.047
H 	H 	0.8811	0.8811	0.2291	0.054
H 	H 	0.8811	0.8811	0.0087	0.051
H 	H 	0.8811	0.2291	0.8811	0.054
H 	H 	0.8811	0.0087	0.8811	0.051
H 	H 	0.2291	0.8811	0.0087	0.047
H 	H 	0.0087	0.8811	0.2291	0.047
H 	H 	0.8811	0.2291	0.0087	0.047
H 	H 	0.8811	0.0087	0.2291	0.047
H 	H 	0.0087	0.8811	0.8811	0.051
H 	H 	0.2291	0.8811	0.8811	0.054
H 	H 	0.392	0.9204	0.392	0.096
H 	H 	0.9204	0.392	0.2956	0.096
H 	H 	0.392	0.2956	0.392	0.094
H 	H 	0.2956	0.392	0.9204	0.096
H 	H 	0.392	0.392	0.2956	0.094
H 	H 	0.9204	0.2956	0.392	0.096
H 	H 	0.392	0.392	0.9204	0.096
H 	H 	0.2956	0.9204	0.392	0.096
H 	H 	0.392	0.2956	0.9204	0.096
H 	H 	0.9204	0.392	0.392	0.096
H 	H 	0.392	0.9204	0.2956	0.096
H 	H 	0.2956	0.392	0.392	0.094
H 	H 	0.0796	0.608	0.608	0.094
H 	H 	0.608	0.0796	0.7044	0.095
H 	H 	0.7044	0.608	0.608	0.096
H 	H 	0.608	0.7044	0.0796	0.095
H 	H 	0.608	0.608	0.7044	0.096
H 	H 	0.7044	0.0796	0.608	0.095
H 	H 	0.608	0.608	0.0796	0.094
H 	H 	0.0796	0.7044	0.608	0.095
H 	H 	0.7044	0.608	0.0796	0.095
H 	H 	0.608	0.0796	0.608	0.094
H 	H 	0.0796	0.608	0.7044	0.095
H 	H 	0.608	0.7044	0.608	0.096
C 	C 	0.7477	0.9889	0.0721	0.364
C 	C 	0.72905	0.98475	0.11437	-0.088
C 	C 	0.69325	0.97795	0.13563	-0.017
C 	C 	0.5566	0.9492	0.2184	-0.067
C 	C 	0.5209	0.9427	0.2395	-0.042
C 	C 	0.9889	0.7477	0.1913	0.365
C 	C 	0.98475	0.72905	0.17183	-0.086
C 	C 	0.97795	0.69325	0.19317	-0.017
C 	C 	0.9492	0.5566	0.2758	-0.067
C 	C 	0.9427	0.5209	0.2969	-0.041
C 	C 	0.0721	0.1913	0.7477	0.367
C 	C 	0.11437	0.17183	0.72905	-0.096
C 	C 	0.13563	0.19317	0.69325	-0.014
C 	C 	0.2184	0.2758	0.5566	-0.068
C 	C 	0.2395	0.2969	0.5209	-0.043
C 	C 	0.1913	0.0721	0.9889	0.365
C 	C 	0.17183	0.11437	0.98475	-0.09
C 	C 	0.19317	0.13563	0.97795	-0.016
C 	C 	0.2758	0.2184	0.9492	-0.067
C 	C 	0.2969	0.2395	0.9427	-0.042
C 	C 	0.7477	0.0721	0.1913	0.367
C 	C 	0.72905	0.11437	0.17183	-0.096
C 	C 	0.69325	0.13563	0.19317	-0.014
C 	C 	0.5566	0.2184	0.2758	-0.068
C 	C 	0.5209	0.2395	0.2969	-0.043
C 	C 	0.9889	0.1913	0.0721	0.365
C 	C 	0.98475	0.17183	0.11437	-0.09
C 	C 	0.97795	0.19317	0.13563	-0.016
C 	C 	0.9492	0.2758	0.2184	-0.067
C 	C 	0.9427	0.2969	0.2395	-0.042
C 	C 	0.0721	0.7477	0.9889	0.364
C 	C 	0.11437	0.72905	0.98475	-0.088
C 	C 	0.13563	0.69325	0.97795	-0.017
C 	C 	0.2184	0.5566	0.9492	-0.067
C 	C 	0.2395	0.5209	0.9427	-0.042
C 	C 	0.1913	0.9889	0.7477	0.365
C 	C 	0.17183	0.98475	0.72905	-0.086
C 	C 	0.19317	0.97795	0.69325	-0.017
C 	C 	0.2758	0.9492	0.5566	-0.067
C 	C 	0.2969	0.9427	0.5209	-0.041
C 	C 	0.7477	0.1913	0.9889	0.365
C 	C 	0.72905	0.17183	0.98475	-0.086
C 	C 	0.69325	0.19317	0.97795	-0.017
C 	C 	0.5566	0.2758	0.9492	-0.067
C 	C 	0.5209	0.2969	0.9427	-0.041
C 	C 	0.9889	0.0721	0.7477	0.364
C 	C 	0.98475	0.11437	0.72905	-0.088
C 	C 	0.97795	0.13563	0.69325	-0.017
C 	C 	0.9492	0.2184	0.5566	-0.067
C 	C 	0.9427	0.2395	0.5209	-0.042
C 	C 	0.0721	0.9889	0.1913	0.365
C 	C 	0.11437	0.98475	0.17183	-0.09
C 	C 	0.13563	0.97795	0.19317	-0.016
C 	C 	0.2184	0.9492	0.2758	-0.067
C 	C 	0.2395	0.9427	0.2969	-0.042
C 	C 	0.1913	0.7477	0.0721	0.367
C 	C 	0.17183	0.72905	0.11437	-0.096
C 	C 	0.19317	0.69325	0.13563	-0.014
C 	C 	0.2758	0.5566	0.2184	-0.068
C 	C 	0.2969	0.5209	0.2395	-0.043
C 	C 	0.0111	0.2523	0.9279	0.365
C 	C 	0.01525	0.27095	0.88563	-0.092
C 	C 	0.02205	0.30675	0.86437	-0.016
C 	C 	0.0508	0.4434	0.7816	-0.068
C 	C 	0.0573	0.4791	0.7605	-0.043
C 	C 	0.2523	0.0111	0.8087	0.367
C 	C 	0.27095	0.01525	0.82817	-0.094
C 	C 	0.30675	0.02205	0.80683	-0.015
C 	C 	0.4434	0.0508	0.7242	-0.068
C 	C 	0.4791	0.0573	0.7031	-0.043
C 	C 	0.8087	0.9279	0.2523	0.364
C 	C 	0.82817	0.88563	0.27095	-0.085
C 	C 	0.80683	0.86437	0.30675	-0.018
C 	C 	0.7242	0.7816	0.4434	-0.067
C 	C 	0.7031	0.7605	0.4791	-0.041
C 	C 	0.9279	0.8087	0.0111	0.365
C 	C 	0.88563	0.82817	0.01525	-0.09
C 	C 	0.86437	0.80683	0.02205	-0.017
C 	C 	0.7816	0.7242	0.0508	-0.068
C 	C 	0.7605	0.7031	0.0573	-0.042
C 	C 	0.9279	0.2523	0.8087	0.364
C 	C 	0.88563	0.27095	0.82817	-0.085
C 	C 	0.86437	0.30675	0.80683	-0.018
C 	C 	0.7816	0.4434	0.7242	-0.067
C 	C 	0.7605	0.4791	0.7031	-0.041
C 	C 	0.8087	0.0111	0.9279	0.365
C 	C 	0.82817	0.01525	0.88563	-0.09
C 	C 	0.80683	0.02205	0.86437	-0.017
C 	C 	0.7242	0.0508	0.7816	-0.068
C 	C 	0.7031	0.0573	0.7605	-0.042
C 	C 	0.2523	0.9279	0.0111	0.365
C 	C 	0.27095	0.88563	0.01525	-0.092
C 	C 	0.30675	0.86437	0.02205	-0.016
C 	C 	0.4434	0.7816	0.0508	-0.068
C 	C 	0.4791	0.7605	0.0573	-0.043
C 	C 	0.0111	0.8087	0.2523	0.367
C 	C 	0.01525	0.82817	0.27095	-0.094
C 	C 	0.02205	0.80683	0.30675	-0.015
C 	C 	0.0508	0.7242	0.4434	-0.068
C 	C 	0.0573	0.7031	0.4791	-0.043
C 	C 	0.8087	0.2523	0.0111	0.367
C 	C 	0.82817	0.27095	0.01525	-0.094
C 	C 	0.80683	0.30675	0.02205	-0.015
C 	C 	0.7242	0.4434	0.0508	-0.068
C 	C 	0.7031	0.4791	0.0573	-0.043
C 	C 	0.9279	0.0111	0.2523	0.365
C 	C 	0.88563	0.01525	0.27095	-0.092
C 	C 	0.86437	0.02205	0.30675	-0.016
C 	C 	0.7816	0.0508	0.4434	-0.068
C 	C 	0.7605	0.0573	0.4791	-0.043
C 	C 	0.0111	0.9279	0.8087	0.365
C 	C 	0.01525	0.88563	0.82817	-0.09
C 	C 	0.02205	0.86437	0.80683	-0.017
C 	C 	0.0508	0.7816	0.7242	-0.068
C 	C 	0.0573	0.7605	0.7031	-0.042
C 	C 	0.2523	0.8087	0.9279	0.364
C 	C 	0.27095	0.82817	0.88563	-0.085
C 	C 	0.30675	0.80683	0.86437	-0.018
C 	C 	0.4434	0.7242	0.7816	-0.067
C 	C 	0.4791	0.7031	0.7605	-0.041
C 	C 	0.2523	0.0111	0.9279	0.365
C 	C 	0.27095	0.01525	0.88563	-0.092
C 	C 	0.30675	0.02205	0.86437	-0.016
C 	C 	0.4434	0.0508	0.7816	-0.068
C 	C 	0.4791	0.0573	0.7605	-0.043
C 	C 	0.0111	0.2523	0.8087	0.367
C 	C 	0.01525	0.27095	0.82817	-0.094
C 	C 	0.02205	0.30675	0.80683	-0.015
C 	C 	0.0508	0.4434	0.7242	-0.068
C 	C 	0.0573	0.4791	0.7031	-0.043
C 	C 	0.9279	0.8087	0.2523	0.364
C 	C 	0.88563	0.82817	0.27095	-0.085
C 	C 	0.86437	0.80683	0.30675	-0.018
C 	C 	0.7816	0.7242	0.4434	-0.067
C 	C 	0.7605	0.7031	0.4791	-0.041
C 	C 	0.8087	0.9279	0.0111	0.365
C 	C 	0.82817	0.88563	0.01525	-0.09
C 	C 	0.80683	0.86437	0.02205	-0.017
C 	C 	0.7242	0.7816	0.0508	-0.068
C 	C 	0.7031	0.7605	0.0573	-0.042
C 	C 	0.2523	0.9279	0.8087	0.364
C 	C 	0.27095	0.88563	0.82817	-0.085
C 	C 	0.30675	0.86437	0.80683	-0.018
C 	C 	0.4434	0.7816	0.7242	-0.067
C 	C 	0.4791	0.7605	0.7031	-0.041
C 	C 	0.0111	0.8087	0.9279	0.365
C 	C 	0.01525	0.82817	0.88563	-0.09
C 	C 	0.02205	0.80683	0.86437	-0.017
C 	C 	0.0508	0.7242	0.7816	-0.068
C 	C 	0.0573	0.7031	0.7605	-0.042
C 	C 	0.9279	0.2523	0.0111	0.365
C 	C 	0.88563	0.27095	0.01525	-0.092
C 	C 	0.86437	0.30675	0.02205	-0.016
C 	C 	0.7816	0.4434	0.0508	-0.068
C 	C 	0.7605	0.4791	0.0573	-0.043
C 	C 	0.8087	0.0111	0.2523	0.367
C 	C 	0.82817	0.01525	0.27095	-0.094
C 	C 	0.80683	0.02205	0.30675	-0.015
C 	C 	0.7242	0.0508	0.4434	-0.068
C 	C 	0.7031	0.0573	0.4791	-0.043
C 	C 	0.2523	0.8087	0.0111	0.367
C 	C 	0.27095	0.82817	0.01525	-0.094
C 	C 	0.30675	0.80683	0.02205	-0.015
C 	C 	0.4434	0.7242	0.0508	-0.068
C 	C 	0.4791	0.7031	0.0573	-0.043
C 	C 	0.0111	0.9279	0.2523	0.365
C 	C 	0.01525	0.88563	0.27095	-0.092
C 	C 	0.02205	0.86437	0.30675	-0.016
C 	C 	0.0508	0.7816	0.4434	-0.068
C 	C 	0.0573	0.7605	0.4791	-0.043
C 	C 	0.9279	0.0111	0.8087	0.365
C 	C 	0.88563	0.01525	0.82817	-0.09
C 	C 	0.86437	0.02205	0.80683	-0.017
C 	C 	0.7816	0.0508	0.7242	-0.068
C 	C 	0.7605	0.0573	0.7031	-0.042
C 	C 	0.8087	0.2523	0.9279	0.364
C 	C 	0.82817	0.27095	0.88563	-0.085
C 	C 	0.80683	0.30675	0.86437	-0.018
C 	C 	0.7242	0.4434	0.7816	-0.067
C 	C 	0.7031	0.4791	0.7605	-0.041
C 	C 	0.9889	0.7477	0.0721	0.364
C 	C 	0.98475	0.72905	0.11437	-0.088
C 	C 	0.97795	0.69325	0.13563	-0.017
C 	C 	0.9492	0.5566	0.2184	-0.067
C 	C 	0.9427	0.5209	0.2395	-0.042
C 	C 	0.7477	0.9889	0.1913	0.365
C 	C 	0.72905	0.98475	0.17183	-0.086
C 	C 	0.69325	0.97795	0.19317	-0.017
C 	C 	0.5566	0.9492	0.2758	-0.067
C 	C 	0.5209	0.9427	0.2969	-0.041
C 	C 	0.1913	0.0721	0.7477	0.367
C 	C 	0.17183	0.11437	0.72905	-0.096
C 	C 	0.19317	0.13563	0.69325	-0.014
C 	C 	0.2758	0.2184	0.5566	-0.068
C 	C 	0.2969	0.2395	0.5209	-0.043
C 	C 	0.0721	0.1913	0.9889	0.365
C 	C 	0.11437	0.17183	0.98475	-0.09
C 	C 	0.13563	0.19317	0.97795	-0.016
C 	C 	0.2184	0.2758	0.9492	-0.067
C 	C 	0.2395	0.2969	0.9427	-0.042
C 	C 	0.0721	0.7477	0.1913	0.367
C 	C 	0.11437	0.72905	0.17183	-0.096
C 	C 	0.13563	0.69325	0.19317	-0.014
C 	C 	0.2184	0.5566	0.2758	-0.068
C 	C 	0.2395	0.5209	0.2969	-0.043
C 	C 	0.1913	0.9889	0.0721	0.365
C 	C 	0.17183	0.98475	0.11437	-0.09
C 	C 	0.19317	0.97795	0.13563	-0.016
C 	C 	0.2758	0.9492	0.2184	-0.067
C 	C 	0.2969	0.9427	0.2395	-0.042
C 	C 	0.7477	0.0721	0.9889	0.364
C 	C 	0.72905	0.11437	0.98475	-0.088
C 	C 	0.69325	0.13563	0.97795	-0.017
C 	C 	0.5566	0.2184	0.9492	-0.067
C 	C 	0.5209	0.2395	0.9427	-0.042
C 	C 	0.9889	0.1913	0.7477	0.365
C 	C 	0.98475	0.17183	0.72905	-0.086
C 	C 	0.97795	0.19317	0.69325	-0.017
C 	C 	0.9492	0.2758	0.5566	-0.067
C 	C 	0.9427	0.2969	0.5209	-0.041
C 	C 	0.1913	0.7477	0.9889	0.365
C 	C 	0.17183	0.72905	0.98475	-0.086
C 	C 	0.19317	0.69325	0.97795	-0.017
C 	C 	0.2758	0.5566	0.9492	-0.067
C 	C 	0.2969	0.5209	0.9427	-0.041
C 	C 	0.0721	0.9889	0.7477	0.364
C 	C 	0.11437	0.98475	0.72905	-0.088
C 	C 	0.13563	0.97795	0.69325	-0.017
C 	C 	0.2184	0.9492	0.5566	-0.067
C 	C 	0.2395	0.9427	0.5209	-0.042
C 	C 	0.9889	0.0721	0.1913	0.365
C 	C 	0.98475	0.11437	0.17183	-0.09
C 	C 	0.97795	0.13563	0.19317	-0.016
C 	C 	0.9492	0.2184	0.2758	-0.067
C 	C 	0.9427	0.2395	0.2969	-0.042
C 	C 	0.7477	0.1913	0.0721	0.367
C 	C 	0.72905	0.17183	0.11437	-0.096
C 	C 	0.69325	0.19317	0.13563	-0.014
C 	C 	0.5566	0.2758	0.2184	-0.068
C 	C 	0.5209	0.2969	0.2395	-0.043
C 	C 	0.7462	0.9874	0.1332	0.037
C 	C 	0.67578	0.97402	0.1751	0.008
C 	C 	0.6391	0.9671	0.1969	-0.002
C 	C 	0.6109	0.9593	0.2149	-0.028
C 	C 	0.5745	0.9525	0.2365	0.044
C 	C 	0.5029	0.9393	0.2789	0.013
C 	C 	0.4661	0.9325	0.3007	0.007
C 	C 	0.4356	0.9268	0.3188	-0.059
C 	C 	0.3959	0.9275	0.3383	0.122
C 	C 	0.9874	0.7462	0.1332	0.037
C 	C 	0.97402	0.67578	0.1751	0.008
C 	C 	0.9671	0.6391	0.1969	-0.002
C 	C 	0.9593	0.6109	0.2149	-0.028
C 	C 	0.9525	0.5745	0.2365	0.044
C 	C 	0.9393	0.5029	0.2789	0.013
C 	C 	0.9325	0.4661	0.3007	0.007
C 	C 	0.9268	0.4356	0.3188	-0.059
C 	C 	0.9275	0.3959	0.3383	0.122
C 	C 	0.1332	0.1332	0.7462	0.041
C 	C 	0.1751	0.1751	0.67578	0.003
C 	C 	0.1969	0.1969	0.6391	-0.004
C 	C 	0.2149	0.2149	0.6109	-0.032
C 	C 	0.2365	0.2365	0.5745	0.042
C 	C 	0.2789	0.2789	0.5029	0.012
C 	C 	0.3007	0.3007	0.4661	0.004
C 	C 	0.3188	0.3188	0.4356	-0.06
C 	C 	0.3383	0.3383	0.3959	0.119
C 	C 	0.1332	0.1332	0.9874	0.038
C 	C 	0.1751	0.1751	0.97402	0.007
C 	C 	0.1969	0.1969	0.9671	-0.002
C 	C 	0.2149	0.2149	0.9593	-0.029
C 	C 	0.2365	0.2365	0.9525	0.044
C 	C 	0.2789	0.2789	0.9393	0.013
C 	C 	0.3007	0.3007	0.9325	0.007
C 	C 	0.3188	0.3188	0.9268	-0.059
C 	C 	0.3383	0.3383	0.9275	0.121
C 	C 	0.7462	0.1332	0.1332	0.041
C 	C 	0.67578	0.1751	0.1751	0.003
C 	C 	0.6391	0.1969	0.1969	-0.004
C 	C 	0.6109	0.2149	0.2149	-0.032
C 	C 	0.5745	0.2365	0.2365	0.042
C 	C 	0.5029	0.2789	0.2789	0.012
C 	C 	0.4661	0.3007	0.3007	0.004
C 	C 	0.4356	0.3188	0.3188	-0.06
C 	C 	0.3959	0.3383	0.3383	0.119
C 	C 	0.9874	0.1332	0.1332	0.038
C 	C 	0.97402	0.1751	0.1751	0.007
C 	C 	0.9671	0.1969	0.1969	-0.002
C 	C 	0.9593	0.2149	0.2149	-0.029
C 	C 	0.9525	0.2365	0.2365	0.044
C 	C 	0.9393	0.2789	0.2789	0.013
C 	C 	0.9325	0.3007	0.3007	0.007
C 	C 	0.9268	0.3188	0.3188	-0.059
C 	C 	0.9275	0.3383	0.3383	0.121
C 	C 	0.1332	0.7462	0.9874	0.037
C 	C 	0.1751	0.67578	0.97402	0.008
C 	C 	0.1969	0.6391	0.9671	-0.002
C 	C 	0.2149	0.6109	0.9593	-0.028
C 	C 	0.2365	0.5745	0.9525	0.044
C 	C 	0.2789	0.5029	0.9393	0.013
C 	C 	0.3007	0.4661	0.9325	0.007
C 	C 	0.3188	0.4356	0.9268	-0.059
C 	C 	0.3383	0.3959	0.9275	0.122
C 	C 	0.1332	0.9874	0.7462	0.037
C 	C 	0.1751	0.97402	0.67578	0.008
C 	C 	0.1969	0.9671	0.6391	-0.002
C 	C 	0.2149	0.9593	0.6109	-0.028
C 	C 	0.2365	0.9525	0.5745	0.044
C 	C 	0.2789	0.9393	0.5029	0.013
C 	C 	0.3007	0.9325	0.4661	0.007
C 	C 	0.3188	0.9268	0.4356	-0.059
C 	C 	0.3383	0.9275	0.3959	0.122
C 	C 	0.7462	0.1332	0.9874	0.037
C 	C 	0.67578	0.1751	0.97402	0.008
C 	C 	0.6391	0.1969	0.9671	-0.002
C 	C 	0.6109	0.2149	0.9593	-0.028
C 	C 	0.5745	0.2365	0.9525	0.044
C 	C 	0.5029	0.2789	0.9393	0.013
C 	C 	0.4661	0.3007	0.9325	0.007
C 	C 	0.4356	0.3188	0.9268	-0.059
C 	C 	0.3959	0.3383	0.9275	0.122
C 	C 	0.9874	0.1332	0.7462	0.037
C 	C 	0.97402	0.1751	0.67578	0.008
C 	C 	0.9671	0.1969	0.6391	-0.002
C 	C 	0.9593	0.2149	0.6109	-0.028
C 	C 	0.9525	0.2365	0.5745	0.044
C 	C 	0.9393	0.2789	0.5029	0.013
C 	C 	0.9325	0.3007	0.4661	0.007
C 	C 	0.9268	0.3188	0.4356	-0.059
C 	C 	0.9275	0.3383	0.3959	0.122
C 	C 	0.1332	0.9874	0.1332	0.038
C 	C 	0.1751	0.97402	0.1751	0.007
C 	C 	0.1969	0.9671	0.1969	-0.002
C 	C 	0.2149	0.9593	0.2149	-0.029
C 	C 	0.2365	0.9525	0.2365	0.044
C 	C 	0.2789	0.9393	0.2789	0.013
C 	C 	0.3007	0.9325	0.3007	0.007
C 	C 	0.3188	0.9268	0.3188	-0.059
C 	C 	0.3383	0.9275	0.3383	0.121
C 	C 	0.1332	0.7462	0.1332	0.041
C 	C 	0.1751	0.67578	0.1751	0.003
C 	C 	0.1969	0.6391	0.1969	-0.004
C 	C 	0.2149	0.6109	0.2149	-0.032
C 	C 	0.2365	0.5745	0.2365	0.042
C 	C 	0.2789	0.5029	0.2789	0.012
C 	C 	0.3007	0.4661	0.3007	0.004
C 	C 	0.3188	0.4356	0.3188	-0.06
C 	C 	0.3383	0.3959	0.3383	0.119
C 	C 	0.0126	0.2538	0.8668	0.04
C 	C 	0.02598	0.32422	0.8249	0.004
C 	C 	0.0329	0.3609	0.8031	-0.003
C 	C 	0.0407	0.3891	0.7851	-0.031
C 	C 	0.0475	0.4255	0.7635	0.043
C 	C 	0.0607	0.4971	0.7211	0.012
C 	C 	0.0675	0.5339	0.6993	0.005
C 	C 	0.0732	0.5644	0.6812	-0.06
C 	C 	0.0725	0.6041	0.6617	0.119
C 	C 	0.2538	0.0126	0.8668	0.04
C 	C 	0.32422	0.02598	0.8249	0.004
C 	C 	0.3609	0.0329	0.8031	-0.003
C 	C 	0.3891	0.0407	0.7851	-0.031
C 	C 	0.4255	0.0475	0.7635	0.043
C 	C 	0.4971	0.0607	0.7211	0.012
C 	C 	0.5339	0.0675	0.6993	0.005
C 	C 	0.5644	0.0732	0.6812	-0.06
C 	C 	0.6041	0.0725	0.6617	0.119
C 	C 	0.8668	0.8668	0.2538	0.036
C 	C 	0.8249	0.8249	0.32422	0.01
C 	C 	0.8031	0.8031	0.3609	-0.001
C 	C 	0.7851	0.7851	0.3891	-0.028
C 	C 	0.7635	0.7635	0.4255	0.045
C 	C 	0.7211	0.7211	0.4971	0.013
C 	C 	0.6993	0.6993	0.5339	0.008
C 	C 	0.6812	0.6812	0.5644	-0.059
C 	C 	0.6617	0.6617	0.6041	0.122
C 	C 	0.8668	0.8668	0.0126	0.038
C 	C 	0.8249	0.8249	0.02598	0.007
C 	C 	0.8031	0.8031	0.0329	-0.003
C 	C 	0.7851	0.7851	0.0407	-0.03
C 	C 	0.7635	0.7635	0.0475	0.043
C 	C 	0.7211	0.7211	0.0607	0.013
C 	C 	0.6993	0.6993	0.0675	0.005
C 	C 	0.6812	0.6812	0.0732	-0.059
C 	C 	0.6617	0.6617	0.0725	0.12
C 	C 	0.8668	0.2538	0.8668	0.036
C 	C 	0.8249	0.32422	0.8249	0.01
C 	C 	0.8031	0.3609	0.8031	-0.001
C 	C 	0.7851	0.3891	0.7851	-0.028
C 	C 	0.7635	0.4255	0.7635	0.045
C 	C 	0.7211	0.4971	0.7211	0.013
C 	C 	0.6993	0.5339	0.6993	0.008
C 	C 	0.6812	0.5644	0.6812	-0.059
C 	C 	0.6617	0.6041	0.6617	0.122
C 	C 	0.8668	0.0126	0.8668	0.038
C 	C 	0.8249	0.02598	0.8249	0.007
C 	C 	0.8031	0.0329	0.8031	-0.003
C 	C 	0.7851	0.0407	0.7851	-0.03
C 	C 	0.7635	0.0475	0.7635	0.043
C 	C 	0.7211	0.0607	0.7211	0.013
C 	C 	0.6993	0.0675	0.6993	0.005
C 	C 	0.6812	0.0732	0.6812	-0.059
C 	C 	0.6617	0.0725	0.6617	0.12
C 	C 	0.2538	0.8668	0.0126	0.04
C 	C 	0.32422	0.8249	0.02598	0.004
C 	C 	0.3609	0.8031	0.0329	-0.003
C 	C 	0.3891	0.7851	0.0407	-0.031
C 	C 	0.4255	0.7635	0.0475	0.043
C 	C 	0.4971	0.7211	0.0607	0.012
C 	C 	0.5339	0.6993	0.0675	0.005
C 	C 	0.5644	0.6812	0.0732	-0.06
C 	C 	0.6041	0.6617	0.0725	0.119
C 	C 	0.0126	0.8668	0.2538	0.04
C 	C 	0.02598	0.8249	0.32422	0.004
C 	C 	0.0329	0.8031	0.3609	-0.003
C 	C 	0.0407	0.7851	0.3891	-0.031
C 	C 	0.0475	0.7635	0.4255	0.043
C 	C 	0.0607	0.7211	0.4971	0.012
C 	C 	0.0675	0.6993	0.5339	0.005
C 	C 	0.0732	0.6812	0.5644	-0.06
C 	C 	0.0725	0.6617	0.6041	0.119
C 	C 	0.8668	0.2538	0.0126	0.04
C 	C 	0.8249	0.32422	0.02598	0.004
C 	C 	0.8031	0.3609	0.0329	-0.003
C 	C 	0.7851	0.3891	0.0407	-0.031
C 	C 	0.7635	0.4255	0.0475	0.043
C 	C 	0.7211	0.4971	0.0607	0.012
C 	C 	0.6993	0.5339	0.0675	0.005
C 	C 	0.6812	0.5644	0.0732	-0.06
C 	C 	0.6617	0.6041	0.0725	0.119
C 	C 	0.8668	0.0126	0.2538	0.04
C 	C 	0.8249	0.02598	0.32422	0.004
C 	C 	0.8031	0.0329	0.3609	-0.003
C 	C 	0.7851	0.0407	0.3891	-0.031
C 	C 	0.7635	0.0475	0.4255	0.043
C 	C 	0.7211	0.0607	0.4971	0.012
C 	C 	0.6993	0.0675	0.5339	0.005
C 	C 	0.6812	0.0732	0.5644	-0.06
C 	C 	0.6617	0.0725	0.6041	0.119
C 	C 	0.0126	0.8668	0.8668	0.038
C 	C 	0.02598	0.8249	0.8249	0.007
C 	C 	0.0329	0.8031	0.8031	-0.003
C 	C 	0.0407	0.7851	0.7851	-0.03
C 	C 	0.0475	0.7635	0.7635	0.043
C 	C 	0.0607	0.7211	0.7211	0.013
C 	C 	0.0675	0.6993	0.6993	0.005
C 	C 	0.0732	0.6812	0.6812	-0.059
C 	C 	0.0725	0.6617	0.6617	0.12
C 	C 	0.2538	0.8668	0.8668	0.036
C 	C 	0.32422	0.8249	0.8249	0.01
C 	C 	0.3609	0.8031	0.8031	-0.001
C 	C 	0.3891	0.7851	0.7851	-0.028
C 	C 	0.4255	0.7635	0.7635	0.045
C 	C 	0.4971	0.7211	0.7211	0.013
C 	C 	0.5339	0.6993	0.6993	0.008
C 	C 	0.5644	0.6812	0.6812	-0.059
C 	C 	0.6041	0.6617	0.6617	0.122
C 	C 	0.3777	0.9245	0.3777	-0.174
C 	C 	0.9245	0.3777	0.3201	-0.174
C 	C 	0.3777	0.3201	0.3777	-0.173
C 	C 	0.3201	0.3777	0.9245	-0.174
C 	C 	0.3777	0.3777	0.3201	-0.173
C 	C 	0.9245	0.3201	0.3777	-0.174
C 	C 	0.3777	0.3777	0.9245	-0.174
C 	C 	0.3201	0.9245	0.3777	-0.174
C 	C 	0.3777	0.3201	0.9245	-0.174
C 	C 	0.9245	0.3777	0.3777	-0.174
C 	C 	0.3777	0.9245	0.3201	-0.174
C 	C 	0.3201	0.3777	0.3777	-0.173
C 	C 	0.0755	0.6223	0.6223	-0.174
C 	C 	0.6223	0.0755	0.6799	-0.174
C 	C 	0.6799	0.6223	0.6223	-0.174
C 	C 	0.6223	0.6799	0.0755	-0.174
C 	C 	0.6223	0.6223	0.6799	-0.174
C 	C 	0.6799	0.0755	0.6223	-0.174
C 	C 	0.6223	0.6223	0.0755	-0.174
C 	C 	0.0755	0.6799	0.6223	-0.174
C 	C 	0.6799	0.6223	0.0755	-0.174
C 	C 	0.6223	0.0755	0.6223	-0.174
C 	C 	0.0755	0.6223	0.6799	-0.174
C 	C 	0.6223	0.6799	0.6223	-0.174
O 	O 	0.78113	0.99107	0.05533	-0.406
O 	O 	0.7282	0.99	0.0558	-0.401
O 	O 	0.99107	0.78113	0.17247	-0.402
O 	O 	0.99	0.7282	0.226	-0.396
O 	O 	0.05533	0.17247	0.78113	-0.419
O 	O 	0.0558	0.226	0.7282	-0.412
O 	O 	0.17247	0.05533	0.99107	-0.408
O 	O 	0.226	0.0558	0.99	-0.401
O 	O 	0.78113	0.05533	0.17247	-0.419
O 	O 	0.7282	0.0558	0.226	-0.412
O 	O 	0.99107	0.17247	0.05533	-0.408
O 	O 	0.99	0.226	0.0558	-0.401
O 	O 	0.05533	0.78113	0.99107	-0.406
O 	O 	0.0558	0.7282	0.99	-0.401
O 	O 	0.17247	0.99107	0.78113	-0.402
O 	O 	0.226	0.99	0.7282	-0.396
O 	O 	0.78113	0.17247	0.99107	-0.402
O 	O 	0.7282	0.226	0.99	-0.396
O 	O 	0.99107	0.05533	0.78113	-0.406
O 	O 	0.99	0.0558	0.7282	-0.401
O 	O 	0.05533	0.99107	0.17247	-0.408
O 	O 	0.0558	0.99	0.226	-0.401
O 	O 	0.17247	0.78113	0.05533	-0.419
O 	O 	0.226	0.7282	0.0558	-0.412
O 	O 	0.00893	0.21887	0.94467	-0.409
O 	O 	0.01	0.2718	0.9442	-0.402
O 	O 	0.21887	0.00893	0.82753	-0.418
O 	O 	0.2718	0.01	0.774	-0.412
O 	O 	0.82753	0.94467	0.21887	-0.402
O 	O 	0.774	0.9442	0.2718	-0.396
O 	O 	0.94467	0.82753	0.00893	-0.407
O 	O 	0.9442	0.774	0.01	-0.402
O 	O 	0.94467	0.21887	0.82753	-0.402
O 	O 	0.9442	0.2718	0.774	-0.396
O 	O 	0.82753	0.00893	0.94467	-0.407
O 	O 	0.774	0.01	0.9442	-0.402
O 	O 	0.21887	0.94467	0.00893	-0.409
O 	O 	0.2718	0.9442	0.01	-0.402
O 	O 	0.00893	0.82753	0.21887	-0.418
O 	O 	0.01	0.774	0.2718	-0.412
O 	O 	0.82753	0.21887	0.00893	-0.418
O 	O 	0.774	0.2718	0.01	-0.412
O 	O 	0.94467	0.00893	0.21887	-0.409
O 	O 	0.9442	0.01	0.2718	-0.402
O 	O 	0.00893	0.94467	0.82753	-0.407
O 	O 	0.01	0.9442	0.774	-0.402
O 	O 	0.21887	0.82753	0.94467	-0.402
O 	O 	0.2718	0.774	0.9442	-0.396
O 	O 	0.21887	0.00893	0.94467	-0.409
O 	O 	0.2718	0.01	0.9442	-0.402
O 	O 	0.00893	0.21887	0.82753	-0.418
O 	O 	0.01	0.2718	0.774	-0.412
O 	O 	0.94467	0.82753	0.21887	-0.402
O 	O 	0.9442	0.774	0.2718	-0.396
O 	O 	0.82753	0.94467	0.00893	-0.407
O 	O 	0.774	0.9442	0.01	-0.402
O 	O 	0.21887	0.94467	0.82753	-0.402
O 	O 	0.2718	0.9442	0.774	-0.396
O 	O 	0.00893	0.82753	0.94467	-0.407
O 	O 	0.01	0.774	0.9442	-0.402
O 	O 	0.94467	0.21887	0.00893	-0.409
O 	O 	0.9442	0.2718	0.01	-0.402
O 	O 	0.82753	0.00893	0.21887	-0.418
O 	O 	0.774	0.01	0.2718	-0.412
O 	O 	0.21887	0.82753	0.00893	-0.418
O 	O 	0.2718	0.774	0.01	-0.412
O 	O 	0.00893	0.94467	0.21887	-0.409
O 	O 	0.01	0.9442	0.2718	-0.402
O 	O 	0.94467	0.00893	0.82753	-0.407
O 	O 	0.9442	0.01	0.774	-0.402
O 	O 	0.82753	0.21887	0.94467	-0.402
O 	O 	0.774	0.2718	0.9442	-0.396
O 	O 	0.99107	0.78113	0.05533	-0.406
O 	O 	0.99	0.7282	0.0558	-0.401
O 	O 	0.78113	0.99107	0.17247	-0.402
O 	O 	0.7282	0.99	0.226	-0.396
O 	O 	0.17247	0.05533	0.78113	-0.419
O 	O 	0.226	0.0558	0.7282	-0.412
O 	O 	0.05533	0.17247	0.99107	-0.408
O 	O 	0.0558	0.226	0.99	-0.401
O 	O 	0.05533	0.78113	0.17247	-0.419
O 	O 	0.0558	0.7282	0.226	-0.412
O 	O 	0.17247	0.99107	0.05533	-0.408
O 	O 	0.226	0.99	0.0558	-0.401
O 	O 	0.78113	0.05533	0.99107	-0.406
O 	O 	0.7282	0.0558	0.99	-0.401
O 	O 	0.99107	0.17247	0.78113	-0.402
O 	O 	0.99	0.226	0.7282	-0.396
O 	O 	0.17247	0.78113	0.99107	-0.402
O 	O 	0.226	0.7282	0.99	-0.396
O 	O 	0.05533	0.99107	0.78113	-0.406
O 	O 	0.0558	0.99	0.7282	-0.401
O 	O 	0.99107	0.05533	0.17247	-0.408
O 	O 	0.99	0.0558	0.226	-0.401
O 	O 	0.78113	0.17247	0.05533	-0.419
O 	O 	0.7282	0.226	0.0558	-0.412
_end
