data_functionalizedCrystal
_audit_creation_method	'EQeq! by Chris Wilmer'
_symmetry_space_group_name_H-M	'P1'
_symmetry_Int_Tables_number	1
_symmetry_cell_setting	triclinic
loop_
_symmetry_equiv_pos_as_xyz
  x,y,z
_cell_length_a	18.3666
_cell_length_b	18.3666
_cell_length_c	18.3666
_cell_angle_alpha	60.0554
_cell_angle_beta	60.0554
_cell_angle_gamma	60.0554
loop_
_atom_site_label
_atom_site_type_symbol
_atom_site_fract_x
_atom_site_fract_y
_atom_site_fract_z
_atom_site_charge
Zn	Zn	0.61047	0.78424	0.61047	1.209
Zn	Zn	0.1974	0.02347	0.1974	1.196
Zn	Zn	0.61047	0.61047	0.78424	1.209
Zn	Zn	0.1974	0.19741	0.02347	1.197
Zn	Zn	0.78424	0.61047	0.61047	1.21
Zn	Zn	0.02347	0.19741	0.1974	1.197
Zn	Zn	0.61011	0.61011	0.61011	1.21
Zn	Zn	0.19754	0.19754	0.19754	1.209
Zn	Zn	0.21576	0.38953	0.38953	1.21
Zn	Zn	0.97653	0.80259	0.80259	1.197
Zn	Zn	0.38953	0.38953	0.21576	1.21
Zn	Zn	0.80259	0.8026	0.97653	1.197
Zn	Zn	0.38953	0.21576	0.38953	1.21
Zn	Zn	0.80259	0.97653	0.80259	1.197
Zn	Zn	0.38989	0.38989	0.38989	1.21
Zn	Zn	0.80246	0.80246	0.80246	1.209
H 	H 	0.3569	0.8396	0.0573	0.08
H 	H 	0.4462	0.7509	0.9682	0.032
H 	H 	0.0573	0.3569	0.8396	0.08
H 	H 	0.9682	0.4462	0.7509	0.032
H 	H 	0.8396	0.0573	0.3569	0.08
H 	H 	0.7509	0.9682	0.4462	0.032
H 	H 	0.8396	0.3569	0.0573	0.08
H 	H 	0.7509	0.4462	0.9682	0.032
H 	H 	0.3569	0.0573	0.8396	0.08
H 	H 	0.4462	0.9682	0.7509	0.032
H 	H 	0.0573	0.8396	0.3569	0.08
H 	H 	0.9682	0.7509	0.4462	0.032
H 	H 	0.3594	0.0562	0.3594	0.042
H 	H 	0.448	0.9681	0.448	0.05
H 	H 	0.3592	0.84	0.3592	0.053
H 	H 	0.4482	0.7508	0.4482	0.046
H 	H 	0.3594	0.3594	0.0562	0.042
H 	H 	0.448	0.448	0.9681	0.05
H 	H 	0.3592	0.3592	0.84	0.053
H 	H 	0.4482	0.4482	0.7508	0.046
H 	H 	0.0562	0.3594	0.3594	0.042
H 	H 	0.9681	0.448	0.448	0.05
H 	H 	0.84	0.3592	0.3592	0.053
H 	H 	0.7508	0.4482	0.4482	0.046
H 	H 	0.1604	0.6431	0.9427	0.08
H 	H 	0.2491	0.5538	0.0318	0.032
H 	H 	0.6431	0.9427	0.1604	0.08
H 	H 	0.5538	0.0318	0.2491	0.032
H 	H 	0.9427	0.1604	0.6431	0.08
H 	H 	0.0318	0.2491	0.5538	0.032
H 	H 	0.6431	0.1604	0.9427	0.08
H 	H 	0.5538	0.2491	0.0318	0.032
H 	H 	0.9427	0.6431	0.1604	0.08
H 	H 	0.0318	0.5538	0.2491	0.032
H 	H 	0.1604	0.9427	0.6431	0.08
H 	H 	0.2491	0.0318	0.5538	0.032
H 	H 	0.9438	0.6406	0.6406	0.042
H 	H 	0.0319	0.552	0.552	0.05
H 	H 	0.16	0.6408	0.6408	0.053
H 	H 	0.2492	0.5518	0.5518	0.046
H 	H 	0.6406	0.6406	0.9438	0.042
H 	H 	0.552	0.552	0.0319	0.05
H 	H 	0.6408	0.6408	0.16	0.053
H 	H 	0.5518	0.5518	0.2492	0.046
H 	H 	0.6406	0.9438	0.6406	0.042
H 	H 	0.552	0.0319	0.552	0.05
H 	H 	0.6408	0.16	0.6408	0.053
H 	H 	0.5518	0.2492	0.5518	0.046
C 	C 	0.37541	0.86591	0.99571	-0.086
C 	C 	0.42915	0.81265	0.94195	0.03
C 	C 	0.99571	0.37541	0.86591	-0.086
C 	C 	0.94195	0.42915	0.81265	0.03
C 	C 	0.86591	0.99571	0.37541	-0.086
C 	C 	0.81265	0.94195	0.42915	0.03
C 	C 	0.86591	0.37541	0.99571	-0.086
C 	C 	0.81265	0.42915	0.94195	0.03
C 	C 	0.37541	0.99571	0.86591	-0.086
C 	C 	0.42915	0.94195	0.81265	0.03
C 	C 	0.99571	0.86591	0.37541	-0.086
C 	C 	0.94195	0.81265	0.42915	0.03
C 	C 	0.29181	0.01633	0.29181	0.367
C 	C 	0.35013	0.95741	0.35013	-0.069
C 	C 	0.37703	0.99463	0.37703	-0.004
C 	C 	0.43056	0.94136	0.43056	-0.015
C 	C 	0.377	0.8662	0.377	-0.025
C 	C 	0.43048	0.81258	0.43048	-0.011
C 	C 	0.45782	0.85069	0.45782	-0.092
C 	C 	0.51556	0.79212	0.51556	0.395
C 	C 	0.29181	0.29181	0.01633	0.367
C 	C 	0.35013	0.35013	0.95741	-0.069
C 	C 	0.37703	0.37703	0.99463	-0.004
C 	C 	0.43056	0.43056	0.94136	-0.015
C 	C 	0.377	0.377	0.8662	-0.025
C 	C 	0.43048	0.43048	0.81258	-0.011
C 	C 	0.45782	0.45782	0.85069	-0.092
C 	C 	0.51556	0.51556	0.79212	0.395
C 	C 	0.01633	0.29181	0.29181	0.367
C 	C 	0.95741	0.35013	0.35013	-0.069
C 	C 	0.99463	0.37703	0.37703	-0.004
C 	C 	0.94136	0.43056	0.43056	-0.015
C 	C 	0.8662	0.377	0.377	-0.025
C 	C 	0.81258	0.43048	0.43048	-0.011
C 	C 	0.85069	0.45782	0.45782	-0.092
C 	C 	0.79212	0.51556	0.51556	0.395
C 	C 	0.2917	0.01585	0.01585	0.303
C 	C 	0.34919	0.95799	0.95799	-0.02
C 	C 	0.45758	0.85008	0.85008	-0.119
C 	C 	0.51583	0.79182	0.79182	0.402
C 	C 	0.01585	0.2917	0.01585	0.303
C 	C 	0.95799	0.34919	0.95799	-0.02
C 	C 	0.85008	0.45758	0.85008	-0.119
C 	C 	0.79182	0.51583	0.79182	0.402
C 	C 	0.01585	0.01585	0.2917	0.303
C 	C 	0.95799	0.95799	0.34919	-0.02
C 	C 	0.85008	0.85008	0.45758	-0.119
C 	C 	0.79182	0.79182	0.51583	0.402
C 	C 	0.13409	0.62459	0.00429	-0.086
C 	C 	0.18735	0.57085	0.05805	0.03
C 	C 	0.62459	0.00429	0.13409	-0.086
C 	C 	0.57085	0.05805	0.18735	0.03
C 	C 	0.00429	0.13409	0.62459	-0.086
C 	C 	0.05805	0.18735	0.57085	0.03
C 	C 	0.62459	0.13409	0.00429	-0.086
C 	C 	0.57085	0.18735	0.05805	0.03
C 	C 	0.00429	0.62459	0.13409	-0.086
C 	C 	0.05805	0.57085	0.18735	0.03
C 	C 	0.13409	0.00429	0.62459	-0.086
C 	C 	0.18735	0.05805	0.57085	0.03
C 	C 	0.98367	0.70819	0.70819	0.367
C 	C 	0.04259	0.64987	0.64987	-0.069
C 	C 	0.00537	0.62297	0.62297	-0.004
C 	C 	0.05864	0.56944	0.56944	-0.015
C 	C 	0.1338	0.623	0.623	-0.025
C 	C 	0.18742	0.56952	0.56952	-0.011
C 	C 	0.14931	0.54218	0.54218	-0.092
C 	C 	0.20788	0.48444	0.48444	0.395
C 	C 	0.70819	0.70819	0.98367	0.367
C 	C 	0.64987	0.64987	0.04259	-0.069
C 	C 	0.62297	0.62297	0.00537	-0.004
C 	C 	0.56944	0.56944	0.05864	-0.015
C 	C 	0.623	0.623	0.1338	-0.025
C 	C 	0.56952	0.56952	0.18742	-0.011
C 	C 	0.54218	0.54218	0.14931	-0.092
C 	C 	0.48444	0.48444	0.20788	0.395
C 	C 	0.70819	0.98367	0.70819	0.367
C 	C 	0.64987	0.04259	0.64987	-0.069
C 	C 	0.62297	0.00537	0.62297	-0.004
C 	C 	0.56944	0.05864	0.56944	-0.015
C 	C 	0.623	0.1338	0.623	-0.025
C 	C 	0.56952	0.18742	0.56952	-0.011
C 	C 	0.54218	0.14931	0.54218	-0.092
C 	C 	0.48444	0.20788	0.48444	0.395
C 	C 	0.98415	0.7083	0.98415	0.303
C 	C 	0.04201	0.65081	0.04201	-0.02
C 	C 	0.14992	0.54242	0.14992	-0.119
C 	C 	0.20818	0.48417	0.20818	0.402
C 	C 	0.7083	0.98415	0.98415	0.303
C 	C 	0.65081	0.04201	0.04201	-0.02
C 	C 	0.54242	0.14992	0.14992	-0.119
C 	C 	0.48417	0.20818	0.20818	0.402
C 	C 	0.98415	0.98415	0.7083	0.303
C 	C 	0.04201	0.04201	0.65081	-0.02
C 	C 	0.14992	0.14992	0.54242	-0.119
C 	C 	0.20818	0.20818	0.48417	0.402
O 	O 	0.53831	0.83071	0.70901	-0.514
O 	O 	0.26975	0.97725	0.09815	-0.47
O 	O 	0.70901	0.53831	0.83071	-0.514
O 	O 	0.09815	0.26975	0.97725	-0.47
O 	O 	0.83071	0.70901	0.53831	-0.514
O 	O 	0.97725	0.09815	0.26975	-0.47
O 	O 	0.83071	0.53831	0.70901	-0.514
O 	O 	0.97725	0.26975	0.09815	-0.47
O 	O 	0.53831	0.70901	0.83071	-0.514
O 	O 	0.26975	0.09815	0.97725	-0.47
O 	O 	0.70901	0.83071	0.53831	-0.514
O 	O 	0.09815	0.97725	0.26975	-0.47
O 	O 	0.53776	0.83097	0.53776	-0.508
O 	O 	0.53751	0.70973	0.53751	-0.512
O 	O 	0.27019	0.09815	0.27019	-0.512
O 	O 	0.26997	0.97718	0.26997	-0.49
O 	O 	0.53776	0.53776	0.83097	-0.508
O 	O 	0.53751	0.53751	0.70973	-0.512
O 	O 	0.27019	0.27019	0.09815	-0.512
O 	O 	0.26997	0.26997	0.97718	-0.491
O 	O 	0.83097	0.53776	0.53776	-0.508
O 	O 	0.70973	0.53751	0.53751	-0.512
O 	O 	0.09815	0.27019	0.27019	-0.512
O 	O 	0.97718	0.26997	0.26997	-0.491
O 	O 	0.65368	0.65368	0.65368	-0.949
O 	O 	0.15433	0.15433	0.15433	-0.962
O 	O 	0.16929	0.46169	0.29099	-0.514
O 	O 	0.02275	0.73025	0.90185	-0.47
O 	O 	0.46169	0.29099	0.16929	-0.514
O 	O 	0.73025	0.90185	0.02275	-0.47
O 	O 	0.29099	0.16929	0.46169	-0.514
O 	O 	0.90185	0.02275	0.73025	-0.47
O 	O 	0.46169	0.16929	0.29099	-0.514
O 	O 	0.73025	0.02275	0.90185	-0.47
O 	O 	0.29099	0.46169	0.16929	-0.514
O 	O 	0.90185	0.73025	0.02275	-0.47
O 	O 	0.16929	0.29099	0.46169	-0.514
O 	O 	0.02275	0.90185	0.73025	-0.47
O 	O 	0.16903	0.46224	0.46224	-0.508
O 	O 	0.29027	0.46249	0.46249	-0.512
O 	O 	0.90185	0.72981	0.72981	-0.512
O 	O 	0.02282	0.73003	0.73003	-0.491
O 	O 	0.46224	0.46224	0.16903	-0.508
O 	O 	0.46249	0.46249	0.29027	-0.512
O 	O 	0.72981	0.72981	0.90185	-0.512
O 	O 	0.73003	0.73003	0.02282	-0.491
O 	O 	0.46224	0.16903	0.46224	-0.508
O 	O 	0.46249	0.29027	0.46249	-0.512
O 	O 	0.72981	0.90185	0.72981	-0.512
O 	O 	0.73003	0.02282	0.73003	-0.491
O 	O 	0.34632	0.34632	0.34632	-0.949
O 	O 	0.84567	0.84567	0.84567	-0.962
_end
