data_functionalizedCrystal
_audit_creation_method	'EQeq! by Chris Wilmer'
_symmetry_space_group_name_H-M	'P1'
_symmetry_Int_Tables_number	1
_symmetry_cell_setting	triclinic
loop_
_symmetry_equiv_pos_as_xyz
  x,y,z
_cell_length_a	26.343000
_cell_length_b	26.343000
_cell_length_c	26.343000
_cell_angle_alpha	90.000000
_cell_angle_beta	90.000000
_cell_angle_gamma	90.000000
loop_
_atom_site_label
_atom_site_type_symbol
_atom_site_fract_x
_atom_site_fract_y
_atom_site_fract_z
_atom_site_charge
C 	C 	0.321983	0.177998	0.886991	-0.104000
C 	C 	0.678017	0.822002	0.886991	-0.054000
C 	C 	0.678017	0.177998	0.113009	-0.167000
C 	C 	0.321983	0.822002	0.113009	-0.133000
C 	C 	0.886991	0.321983	0.177998	-0.104000
C 	C 	0.886991	0.678017	0.822002	-0.054000
C 	C 	0.113009	0.678017	0.177998	-0.167000
C 	C 	0.113009	0.321983	0.822002	-0.133000
C 	C 	0.177998	0.886991	0.321983	-0.104000
C 	C 	0.822002	0.886991	0.678017	-0.054000
C 	C 	0.177998	0.113009	0.678017	-0.167000
C 	C 	0.822002	0.113009	0.321983	-0.133000
C 	C 	0.177998	0.321983	0.113009	-0.175000
C 	C 	0.822002	0.678017	0.113009	-0.125000
C 	C 	0.177998	0.678017	0.886991	-0.096000
C 	C 	0.822002	0.321983	0.886991	-0.062000
C 	C 	0.321983	0.886991	0.822002	-0.062000
C 	C 	0.678017	0.886991	0.177998	-0.096000
C 	C 	0.678017	0.113009	0.822002	-0.125000
C 	C 	0.321983	0.113009	0.177998	-0.175000
C 	C 	0.886991	0.177998	0.678017	-0.096000
C 	C 	0.886991	0.822002	0.321983	-0.062000
C 	C 	0.113009	0.177998	0.321983	-0.175000
C 	C 	0.113009	0.822002	0.678017	-0.125000
C 	C 	0.678017	0.822002	0.113009	-0.125000
C 	C 	0.321983	0.177998	0.113009	-0.175000
C 	C 	0.321983	0.822002	0.886991	-0.062000
C 	C 	0.678017	0.177998	0.886991	-0.096000
C 	C 	0.113009	0.678017	0.822002	-0.125000
C 	C 	0.113009	0.321983	0.177998	-0.175000
C 	C 	0.886991	0.321983	0.822002	-0.062000
C 	C 	0.886991	0.678017	0.177998	-0.096000
C 	C 	0.822002	0.113009	0.678017	-0.125000
C 	C 	0.177998	0.113009	0.321983	-0.175000
C 	C 	0.822002	0.886991	0.321983	-0.062000
C 	C 	0.177998	0.886991	0.678017	-0.096000
C 	C 	0.822002	0.678017	0.886991	-0.054000
C 	C 	0.177998	0.321983	0.886991	-0.104000
C 	C 	0.822002	0.321983	0.113009	-0.133000
C 	C 	0.177998	0.678017	0.113009	-0.167000
C 	C 	0.678017	0.113009	0.177998	-0.167000
C 	C 	0.321983	0.113009	0.822002	-0.133000
C 	C 	0.321983	0.886991	0.177998	-0.104000
C 	C 	0.678017	0.886991	0.822002	-0.054000
C 	C 	0.113009	0.822002	0.321983	-0.133000
C 	C 	0.113009	0.177998	0.678017	-0.167000
C 	C 	0.886991	0.822002	0.678017	-0.054000
C 	C 	0.886991	0.177998	0.321983	-0.104000
C 	C 	0.321983	0.678017	0.387010	-0.124000
C 	C 	0.678017	0.321983	0.387010	-0.124000
C 	C 	0.678017	0.678017	0.612990	-0.111000
C 	C 	0.321983	0.321983	0.612990	-0.128000
C 	C 	0.177998	0.387010	0.822002	-0.119000
C 	C 	0.822002	0.387010	0.177998	-0.119000
C 	C 	0.177998	0.612990	0.177998	-0.157000
C 	C 	0.822002	0.612990	0.822002	-0.073000
C 	C 	0.177998	0.822002	0.612990	-0.115000
C 	C 	0.822002	0.177998	0.612990	-0.115000
C 	C 	0.177998	0.177998	0.387010	-0.161000
C 	C 	0.822002	0.822002	0.387010	-0.077000
C 	C 	0.321983	0.387010	0.321983	-0.132000
C 	C 	0.678017	0.387010	0.678017	-0.115000
C 	C 	0.678017	0.612990	0.321983	-0.120000
C 	C 	0.321983	0.612990	0.678017	-0.120000
C 	C 	0.678017	0.321983	0.612990	-0.120000
C 	C 	0.321983	0.678017	0.612990	-0.120000
C 	C 	0.321983	0.321983	0.387010	-0.132000
C 	C 	0.678017	0.678017	0.387010	-0.115000
C 	C 	0.822002	0.612990	0.177998	-0.115000
C 	C 	0.177998	0.612990	0.822002	-0.115000
C 	C 	0.822002	0.387010	0.822002	-0.077000
C 	C 	0.177998	0.387010	0.177998	-0.161000
C 	C 	0.822002	0.177998	0.387010	-0.119000
C 	C 	0.177998	0.822002	0.387010	-0.119000
C 	C 	0.822002	0.822002	0.612990	-0.073000
C 	C 	0.177998	0.177998	0.612990	-0.157000
C 	C 	0.678017	0.612990	0.678017	-0.111000
C 	C 	0.321983	0.612990	0.321983	-0.128000
C 	C 	0.321983	0.387010	0.678017	-0.124000
C 	C 	0.678017	0.387010	0.321983	-0.124000
C 	C 	0.387010	0.321983	0.678017	-0.124000
C 	C 	0.387010	0.678017	0.321983	-0.124000
C 	C 	0.612990	0.678017	0.678017	-0.111000
C 	C 	0.612990	0.321983	0.321983	-0.128000
C 	C 	0.387010	0.177998	0.177998	-0.161000
C 	C 	0.387010	0.822002	0.822002	-0.077000
C 	C 	0.612990	0.177998	0.822002	-0.115000
C 	C 	0.612990	0.822002	0.177998	-0.115000
C 	C 	0.612990	0.678017	0.321983	-0.120000
C 	C 	0.612990	0.321983	0.678017	-0.120000
C 	C 	0.387010	0.321983	0.321983	-0.132000
C 	C 	0.387010	0.678017	0.678017	-0.115000
C 	C 	0.612990	0.822002	0.822002	-0.073000
C 	C 	0.612990	0.177998	0.177998	-0.157000
C 	C 	0.387010	0.822002	0.177998	-0.119000
C 	C 	0.387010	0.177998	0.822002	-0.119000
C 	C 	0.296815	0.203204	0.931291	0.366000
C 	C 	0.703185	0.796796	0.931291	0.353000
C 	C 	0.703185	0.203204	0.068709	0.387000
C 	C 	0.296815	0.796796	0.068709	0.383000
C 	C 	0.931291	0.296815	0.203204	0.366000
C 	C 	0.931291	0.703185	0.796796	0.353000
C 	C 	0.068709	0.703185	0.203204	0.387000
C 	C 	0.068709	0.296815	0.796796	0.383000
C 	C 	0.203204	0.931291	0.296815	0.366000
C 	C 	0.796796	0.931291	0.703185	0.353000
C 	C 	0.203204	0.068709	0.703185	0.387000
C 	C 	0.796796	0.068709	0.296815	0.383000
C 	C 	0.203204	0.296815	0.068709	0.392000
C 	C 	0.796796	0.703185	0.068709	0.379000
C 	C 	0.203204	0.703185	0.931291	0.361000
C 	C 	0.796796	0.296815	0.931291	0.357000
C 	C 	0.296815	0.931291	0.796796	0.357000
C 	C 	0.703185	0.931291	0.203204	0.361000
C 	C 	0.703185	0.068709	0.796796	0.379000
C 	C 	0.296815	0.068709	0.203204	0.392000
C 	C 	0.931291	0.203204	0.703185	0.361000
C 	C 	0.931291	0.796796	0.296815	0.357000
C 	C 	0.068709	0.203204	0.296815	0.392000
C 	C 	0.068709	0.796796	0.703185	0.379000
C 	C 	0.703185	0.796796	0.068709	0.379000
C 	C 	0.296815	0.203204	0.068709	0.392000
C 	C 	0.296815	0.796796	0.931291	0.357000
C 	C 	0.703185	0.203204	0.931291	0.361000
C 	C 	0.068709	0.703185	0.796796	0.379000
C 	C 	0.068709	0.296815	0.203204	0.392000
C 	C 	0.931291	0.296815	0.796796	0.357000
C 	C 	0.931291	0.703185	0.203204	0.361000
C 	C 	0.796796	0.068709	0.703185	0.379000
C 	C 	0.203204	0.068709	0.296815	0.392000
C 	C 	0.796796	0.931291	0.296815	0.357000
C 	C 	0.203204	0.931291	0.703185	0.361000
C 	C 	0.796796	0.703185	0.931291	0.353000
C 	C 	0.203204	0.296815	0.931291	0.366000
C 	C 	0.796796	0.296815	0.068709	0.383000
C 	C 	0.203204	0.703185	0.068709	0.387000
C 	C 	0.703185	0.068709	0.203204	0.387000
C 	C 	0.296815	0.068709	0.796796	0.383000
C 	C 	0.296815	0.931291	0.203204	0.366000
C 	C 	0.703185	0.931291	0.796796	0.353000
C 	C 	0.068709	0.796796	0.296815	0.383000
C 	C 	0.068709	0.203204	0.703185	0.387000
C 	C 	0.931291	0.796796	0.703185	0.353000
C 	C 	0.931291	0.203204	0.296815	0.366000
C 	C 	0.296815	0.703185	0.431310	0.383000
C 	C 	0.703185	0.296815	0.431310	0.383000
C 	C 	0.703185	0.703185	0.568690	0.377000
C 	C 	0.296815	0.296815	0.568690	0.386000
C 	C 	0.203204	0.431310	0.796796	0.380000
C 	C 	0.796796	0.431310	0.203204	0.380000
C 	C 	0.203204	0.568690	0.203204	0.387000
C 	C 	0.796796	0.568690	0.796796	0.371000
C 	C 	0.203204	0.796796	0.568690	0.379000
C 	C 	0.796796	0.203204	0.568690	0.379000
C 	C 	0.203204	0.203204	0.431310	0.389000
C 	C 	0.796796	0.796796	0.431310	0.372000
C 	C 	0.296815	0.431310	0.296815	0.387000
C 	C 	0.703185	0.431310	0.703185	0.378000
C 	C 	0.703185	0.568690	0.296815	0.381000
C 	C 	0.296815	0.568690	0.703185	0.381000
C 	C 	0.703185	0.296815	0.568690	0.381000
C 	C 	0.296815	0.703185	0.568690	0.381000
C 	C 	0.296815	0.296815	0.431310	0.387000
C 	C 	0.703185	0.703185	0.431310	0.378000
C 	C 	0.796796	0.568690	0.203204	0.379000
C 	C 	0.203204	0.568690	0.796796	0.379000
C 	C 	0.796796	0.431310	0.796796	0.372000
C 	C 	0.203204	0.431310	0.203204	0.389000
C 	C 	0.796796	0.203204	0.431310	0.380000
C 	C 	0.203204	0.796796	0.431310	0.380000
C 	C 	0.796796	0.796796	0.568690	0.371000
C 	C 	0.203204	0.203204	0.568690	0.387000
C 	C 	0.703185	0.568690	0.703185	0.377000
C 	C 	0.296815	0.568690	0.296815	0.386000
C 	C 	0.296815	0.431310	0.703185	0.383000
C 	C 	0.703185	0.431310	0.296815	0.383000
C 	C 	0.431310	0.296815	0.703185	0.383000
C 	C 	0.431310	0.703185	0.296815	0.383000
C 	C 	0.568690	0.703185	0.703185	0.377000
C 	C 	0.568690	0.296815	0.296815	0.386000
C 	C 	0.431310	0.203204	0.203204	0.389000
C 	C 	0.431310	0.796796	0.796796	0.372000
C 	C 	0.568690	0.203204	0.796796	0.379000
C 	C 	0.568690	0.796796	0.203204	0.379000
C 	C 	0.568690	0.703185	0.296815	0.381000
C 	C 	0.568690	0.296815	0.703185	0.381000
C 	C 	0.431310	0.296815	0.296815	0.387000
C 	C 	0.431310	0.703185	0.703185	0.378000
C 	C 	0.568690	0.796796	0.796796	0.371000
C 	C 	0.568690	0.203204	0.203204	0.387000
C 	C 	0.431310	0.796796	0.203204	0.380000
C 	C 	0.431310	0.203204	0.796796	0.380000
C 	C 	0.365486	0.199408	0.865505	0.059000
C 	C 	0.634514	0.800592	0.865505	0.035000
C 	C 	0.634514	0.199408	0.134495	0.082000
C 	C 	0.365486	0.800592	0.134495	0.067000
C 	C 	0.865505	0.365486	0.199408	0.059000
C 	C 	0.865505	0.634514	0.800592	0.035000
C 	C 	0.134495	0.634514	0.199408	0.082000
C 	C 	0.134495	0.365486	0.800592	0.067000
C 	C 	0.199408	0.865505	0.365486	0.059000
C 	C 	0.800592	0.865505	0.634514	0.035000
C 	C 	0.199408	0.134495	0.634514	0.082000
C 	C 	0.800592	0.134495	0.365486	0.067000
C 	C 	0.199408	0.365486	0.134495	0.087000
C 	C 	0.800592	0.634514	0.134495	0.062000
C 	C 	0.199408	0.634514	0.865505	0.054000
C 	C 	0.800592	0.365486	0.865505	0.039000
C 	C 	0.365486	0.865505	0.800592	0.039000
C 	C 	0.634514	0.865505	0.199408	0.054000
C 	C 	0.634514	0.134495	0.800592	0.062000
C 	C 	0.365486	0.134495	0.199408	0.087000
C 	C 	0.865505	0.199408	0.634514	0.054000
C 	C 	0.865505	0.800592	0.365486	0.039000
C 	C 	0.134495	0.199408	0.365486	0.087000
C 	C 	0.134495	0.800592	0.634514	0.062000
C 	C 	0.634514	0.800592	0.134495	0.062000
C 	C 	0.365486	0.199408	0.134495	0.087000
C 	C 	0.365486	0.800592	0.865505	0.039000
C 	C 	0.634514	0.199408	0.865505	0.054000
C 	C 	0.134495	0.634514	0.800592	0.062000
C 	C 	0.134495	0.365486	0.199408	0.087000
C 	C 	0.865505	0.365486	0.800592	0.039000
C 	C 	0.865505	0.634514	0.199408	0.054000
C 	C 	0.800592	0.134495	0.634514	0.062000
C 	C 	0.199408	0.134495	0.365486	0.087000
C 	C 	0.800592	0.865505	0.365486	0.039000
C 	C 	0.199408	0.865505	0.634514	0.054000
C 	C 	0.800592	0.634514	0.865505	0.035000
C 	C 	0.199408	0.365486	0.865505	0.059000
C 	C 	0.800592	0.365486	0.134495	0.067000
C 	C 	0.199408	0.634514	0.134495	0.082000
C 	C 	0.634514	0.134495	0.199408	0.082000
C 	C 	0.365486	0.134495	0.800592	0.067000
C 	C 	0.365486	0.865505	0.199408	0.059000
C 	C 	0.634514	0.865505	0.800592	0.035000
C 	C 	0.134495	0.800592	0.365486	0.067000
C 	C 	0.134495	0.199408	0.634514	0.082000
C 	C 	0.865505	0.800592	0.634514	0.035000
C 	C 	0.865505	0.199408	0.365486	0.059000
C 	C 	0.365486	0.699389	0.365486	0.067000
C 	C 	0.634514	0.300611	0.365486	0.069000
C 	C 	0.634514	0.699389	0.634514	0.058000
C 	C 	0.365486	0.300611	0.634514	0.069000
C 	C 	0.865505	0.865505	0.699389	0.029000
C 	C 	0.865505	0.134495	0.300611	0.063000
C 	C 	0.134495	0.134495	0.699389	0.084000
C 	C 	0.134495	0.865505	0.300611	0.063000
C 	C 	0.365486	0.365486	0.300611	0.074000
C 	C 	0.634514	0.365486	0.699389	0.063000
C 	C 	0.634514	0.634514	0.300611	0.065000
C 	C 	0.365486	0.634514	0.699389	0.063000
C 	C 	0.865505	0.699389	0.134495	0.056000
C 	C 	0.865505	0.300611	0.865505	0.035000
C 	C 	0.134495	0.699389	0.865505	0.056000
C 	C 	0.134495	0.300611	0.134495	0.091000
C 	C 	0.634514	0.300611	0.634514	0.065000
C 	C 	0.365486	0.699389	0.634514	0.063000
C 	C 	0.365486	0.300611	0.365486	0.074000
C 	C 	0.634514	0.699389	0.365486	0.063000
C 	C 	0.134495	0.134495	0.300611	0.091000
C 	C 	0.134495	0.865505	0.699389	0.056000
C 	C 	0.865505	0.865505	0.300611	0.035000
C 	C 	0.865505	0.134495	0.699389	0.056000
C 	C 	0.634514	0.634514	0.699389	0.058000
C 	C 	0.365486	0.634514	0.300611	0.069000
C 	C 	0.365486	0.365486	0.699389	0.067000
C 	C 	0.634514	0.365486	0.300611	0.069000
C 	C 	0.134495	0.300611	0.865505	0.063000
C 	C 	0.134495	0.699389	0.134495	0.084000
C 	C 	0.865505	0.300611	0.134495	0.063000
C 	C 	0.865505	0.699389	0.865505	0.029000
C 	C 	0.699389	0.865505	0.865505	0.029000
C 	C 	0.300611	0.865505	0.134495	0.063000
C 	C 	0.699389	0.134495	0.134495	0.084000
C 	C 	0.300611	0.134495	0.865505	0.063000
C 	C 	0.699389	0.365486	0.634514	0.063000
C 	C 	0.300611	0.634514	0.634514	0.065000
C 	C 	0.699389	0.634514	0.365486	0.063000
C 	C 	0.300611	0.365486	0.365486	0.074000
C 	C 	0.300611	0.134495	0.134495	0.091000
C 	C 	0.699389	0.134495	0.865505	0.056000
C 	C 	0.300611	0.865505	0.865505	0.035000
C 	C 	0.699389	0.865505	0.134495	0.056000
C 	C 	0.300611	0.634514	0.365486	0.069000
C 	C 	0.699389	0.365486	0.365486	0.067000
C 	C 	0.300611	0.365486	0.634514	0.069000
C 	C 	0.699389	0.634514	0.634514	0.058000
Cu	Cu	0.285313	0.285313	0.000000	0.825000
Cu	Cu	0.714687	0.714687	0.000000	0.825000
Cu	Cu	0.714687	0.285313	0.000000	0.825000
Cu	Cu	0.285313	0.714687	0.000000	0.825000
Cu	Cu	-0.000000	0.285313	0.285313	0.825000
Cu	Cu	-0.000000	0.714687	0.714687	0.825000
Cu	Cu	-0.000000	0.714687	0.285313	0.825000
Cu	Cu	-0.000000	0.285313	0.714687	0.825000
Cu	Cu	0.285313	-0.000000	0.285313	0.825000
Cu	Cu	0.714687	-0.000000	0.714687	0.825000
Cu	Cu	0.285313	-0.000000	0.714687	0.825000
Cu	Cu	0.714687	-0.000000	0.285313	0.825000
Cu	Cu	0.285313	0.785294	0.500019	0.914000
Cu	Cu	0.714687	0.214706	0.500019	0.904000
Cu	Cu	0.714687	0.785294	0.500019	0.914000
Cu	Cu	0.285313	0.214706	0.500019	0.903000
Cu	Cu	-0.000000	0.785294	0.785294	0.836000
Cu	Cu	-0.000000	0.214706	0.214706	0.816000
Cu	Cu	-0.000000	0.214706	0.785294	0.826000
Cu	Cu	-0.000000	0.785294	0.214706	0.826000
Cu	Cu	0.285313	0.500019	0.785294	0.914000
Cu	Cu	0.714687	0.500019	0.214706	0.904000
Cu	Cu	0.285313	0.500019	0.214706	0.903000
Cu	Cu	0.714687	0.500019	0.785294	0.914000
Cu	Cu	0.785294	0.285313	0.500019	0.914000
Cu	Cu	0.214706	0.714687	0.500019	0.904000
Cu	Cu	0.214706	0.285313	0.500019	0.903000
Cu	Cu	0.785294	0.714687	0.500019	0.914000
Cu	Cu	0.500019	0.285313	0.785294	0.914000
Cu	Cu	0.500019	0.714687	0.214706	0.904000
Cu	Cu	0.500019	0.714687	0.785294	0.914000
Cu	Cu	0.500019	0.285313	0.214706	0.903000
Cu	Cu	0.785294	-0.000000	0.785294	0.836000
Cu	Cu	0.214706	-0.000000	0.214706	0.816000
Cu	Cu	0.785294	-0.000000	0.214706	0.826000
Cu	Cu	0.214706	-0.000000	0.785294	0.826000
Cu	Cu	0.785294	0.785294	0.000000	0.836000
Cu	Cu	0.214706	0.214706	0.000000	0.816000
Cu	Cu	0.214706	0.785294	0.000000	0.826000
Cu	Cu	0.785294	0.214706	0.000000	0.826000
Cu	Cu	0.500019	0.785294	0.285313	0.914000
Cu	Cu	0.500019	0.214706	0.714687	0.904000
Cu	Cu	0.500019	0.214706	0.285313	0.903000
Cu	Cu	0.500019	0.785294	0.714687	0.914000
Cu	Cu	0.785294	0.500019	0.285313	0.914000
Cu	Cu	0.214706	0.500019	0.714687	0.904000
Cu	Cu	0.785294	0.500019	0.714687	0.914000
Cu	Cu	0.214706	0.500019	0.285313	0.903000
H 	H 	0.380215	0.227992	0.880196	0.059000
H 	H 	0.619785	0.772008	0.880196	0.075000
H 	H 	0.619785	0.227992	0.119804	0.015000
H 	H 	0.380215	0.772008	0.119804	0.028000
H 	H 	0.880196	0.380215	0.227992	0.059000
H 	H 	0.880196	0.619785	0.772008	0.075000
H 	H 	0.119804	0.619785	0.227992	0.015000
H 	H 	0.119804	0.380215	0.772008	0.028000
H 	H 	0.227992	0.880196	0.380215	0.059000
H 	H 	0.772008	0.880196	0.619785	0.075000
H 	H 	0.227992	0.119804	0.619785	0.015000
H 	H 	0.772008	0.119804	0.380215	0.028000
H 	H 	0.227992	0.380215	0.119804	0.014000
H 	H 	0.772008	0.619785	0.119804	0.030000
H 	H 	0.227992	0.619785	0.880196	0.061000
H 	H 	0.772008	0.380215	0.880196	0.073000
H 	H 	0.380215	0.880196	0.772008	0.073000
H 	H 	0.619785	0.880196	0.227992	0.061000
H 	H 	0.619785	0.119804	0.772008	0.030000
H 	H 	0.380215	0.119804	0.227992	0.014000
H 	H 	0.880196	0.227992	0.619785	0.061000
H 	H 	0.880196	0.772008	0.380215	0.073000
H 	H 	0.119804	0.227992	0.380215	0.014000
H 	H 	0.119804	0.772008	0.619785	0.030000
H 	H 	0.619785	0.772008	0.119804	0.030000
H 	H 	0.380215	0.227992	0.119804	0.014000
H 	H 	0.380215	0.772008	0.880196	0.073000
H 	H 	0.619785	0.227992	0.880196	0.061000
H 	H 	0.119804	0.619785	0.772008	0.030000
H 	H 	0.119804	0.380215	0.227992	0.014000
H 	H 	0.880196	0.380215	0.772008	0.073000
H 	H 	0.880196	0.619785	0.227992	0.061000
H 	H 	0.772008	0.119804	0.619785	0.030000
H 	H 	0.227992	0.119804	0.380215	0.014000
H 	H 	0.772008	0.880196	0.380215	0.073000
H 	H 	0.227992	0.880196	0.619785	0.061000
H 	H 	0.772008	0.619785	0.880196	0.075000
H 	H 	0.227992	0.380215	0.880196	0.059000
H 	H 	0.772008	0.380215	0.119804	0.028000
H 	H 	0.227992	0.619785	0.119804	0.015000
H 	H 	0.619785	0.119804	0.227992	0.015000
H 	H 	0.380215	0.119804	0.772008	0.028000
H 	H 	0.380215	0.880196	0.227992	0.059000
H 	H 	0.619785	0.880196	0.772008	0.075000
H 	H 	0.119804	0.772008	0.380215	0.028000
H 	H 	0.119804	0.227992	0.619785	0.015000
H 	H 	0.880196	0.772008	0.619785	0.075000
H 	H 	0.880196	0.227992	0.380215	0.059000
H 	H 	0.380215	0.728011	0.380215	0.047000
H 	H 	0.619785	0.271989	0.380215	0.036000
H 	H 	0.619785	0.728011	0.619785	0.050000
H 	H 	0.380215	0.271989	0.619785	0.036000
H 	H 	0.880196	0.880196	0.728011	0.097000
H 	H 	0.880196	0.119804	0.271989	0.040000
H 	H 	0.119804	0.119804	0.728011	0.007000
H 	H 	0.119804	0.880196	0.271989	0.040000
H 	H 	0.380215	0.380215	0.271989	0.034000
H 	H 	0.619785	0.380215	0.728011	0.048000
H 	H 	0.619785	0.619785	0.271989	0.038000
H 	H 	0.380215	0.619785	0.728011	0.048000
H 	H 	0.880196	0.728011	0.119804	0.052000
H 	H 	0.880196	0.271989	0.880196	0.085000
H 	H 	0.119804	0.728011	0.880196	0.052000
H 	H 	0.119804	0.271989	0.119804	-0.006000
H 	H 	0.619785	0.271989	0.619785	0.038000
H 	H 	0.380215	0.728011	0.619785	0.048000
H 	H 	0.380215	0.271989	0.380215	0.034000
H 	H 	0.619785	0.728011	0.380215	0.048000
H 	H 	0.119804	0.119804	0.271989	-0.006000
H 	H 	0.119804	0.880196	0.728011	0.052000
H 	H 	0.880196	0.880196	0.271989	0.085000
H 	H 	0.880196	0.119804	0.728011	0.052000
H 	H 	0.619785	0.619785	0.728011	0.050000
H 	H 	0.380215	0.619785	0.271989	0.036000
H 	H 	0.380215	0.380215	0.728011	0.047000
H 	H 	0.619785	0.380215	0.271989	0.036000
H 	H 	0.119804	0.271989	0.880196	0.040000
H 	H 	0.119804	0.728011	0.119804	0.007000
H 	H 	0.880196	0.271989	0.119804	0.040000
H 	H 	0.880196	0.728011	0.880196	0.097000
H 	H 	0.728011	0.880196	0.880196	0.097000
H 	H 	0.271989	0.880196	0.119804	0.040000
H 	H 	0.728011	0.119804	0.119804	0.007000
H 	H 	0.271989	0.119804	0.880196	0.040000
H 	H 	0.728011	0.380215	0.619785	0.048000
H 	H 	0.271989	0.619785	0.619785	0.038000
H 	H 	0.728011	0.619785	0.380215	0.048000
H 	H 	0.271989	0.380215	0.380215	0.034000
H 	H 	0.271989	0.119804	0.119804	-0.006000
H 	H 	0.728011	0.119804	0.880196	0.052000
H 	H 	0.271989	0.880196	0.880196	0.085000
H 	H 	0.728011	0.880196	0.119804	0.052000
H 	H 	0.271989	0.619785	0.380215	0.036000
H 	H 	0.728011	0.380215	0.380215	0.047000
H 	H 	0.271989	0.380215	0.619785	0.036000
H 	H 	0.728011	0.619785	0.619785	0.050000
O 	O 	0.316593	0.243101	0.947804	-0.324000
O 	O 	0.683407	0.756899	0.947804	-0.313000
O 	O 	0.683407	0.243101	0.052196	-0.463000
O 	O 	0.316593	0.756899	0.052196	-0.456000
O 	O 	0.947804	0.316593	0.243101	-0.324000
O 	O 	0.947804	0.683407	0.756899	-0.313000
O 	O 	0.052196	0.683407	0.243101	-0.463000
O 	O 	0.052196	0.316593	0.756899	-0.456000
O 	O 	0.243101	0.947804	0.316593	-0.324000
O 	O 	0.756899	0.947804	0.683407	-0.313000
O 	O 	0.243101	0.052196	0.683407	-0.463000
O 	O 	0.756899	0.052196	0.316593	-0.456000
O 	O 	0.243101	0.316593	0.052196	-0.465000
O 	O 	0.756899	0.683407	0.052196	-0.454000
O 	O 	0.243101	0.683407	0.947804	-0.323000
O 	O 	0.756899	0.316593	0.947804	-0.315000
O 	O 	0.316593	0.947804	0.756899	-0.315000
O 	O 	0.683407	0.947804	0.243101	-0.323000
O 	O 	0.683407	0.052196	0.756899	-0.454000
O 	O 	0.316593	0.052196	0.243101	-0.465000
O 	O 	0.947804	0.243101	0.683407	-0.323000
O 	O 	0.947804	0.756899	0.316593	-0.315000
O 	O 	0.052196	0.243101	0.316593	-0.465000
O 	O 	0.052196	0.756899	0.683407	-0.454000
O 	O 	0.683407	0.756899	0.052196	-0.454000
O 	O 	0.316593	0.243101	0.052196	-0.465000
O 	O 	0.316593	0.756899	0.947804	-0.315000
O 	O 	0.683407	0.243101	0.947804	-0.323000
O 	O 	0.052196	0.683407	0.756899	-0.454000
O 	O 	0.052196	0.316593	0.243101	-0.465000
O 	O 	0.947804	0.316593	0.756899	-0.315000
O 	O 	0.947804	0.683407	0.243101	-0.323000
O 	O 	0.756899	0.052196	0.683407	-0.454000
O 	O 	0.243101	0.052196	0.316593	-0.465000
O 	O 	0.756899	0.947804	0.316593	-0.315000
O 	O 	0.243101	0.947804	0.683407	-0.323000
O 	O 	0.756899	0.683407	0.947804	-0.313000
O 	O 	0.243101	0.316593	0.947804	-0.324000
O 	O 	0.756899	0.316593	0.052196	-0.456000
O 	O 	0.243101	0.683407	0.052196	-0.463000
O 	O 	0.683407	0.052196	0.243101	-0.463000
O 	O 	0.316593	0.052196	0.756899	-0.456000
O 	O 	0.316593	0.947804	0.243101	-0.324000
O 	O 	0.683407	0.947804	0.756899	-0.313000
O 	O 	0.052196	0.756899	0.316593	-0.456000
O 	O 	0.052196	0.243101	0.683407	-0.463000
O 	O 	0.947804	0.756899	0.683407	-0.313000
O 	O 	0.947804	0.243101	0.316593	-0.324000
O 	O 	0.316593	0.743082	0.447785	-0.405000
O 	O 	0.683407	0.256918	0.447785	-0.417000
O 	O 	0.683407	0.743082	0.552215	-0.403000
O 	O 	0.316593	0.256918	0.552215	-0.418000
O 	O 	0.947804	0.816612	0.743082	-0.296000
O 	O 	0.947804	0.183388	0.256918	-0.340000
O 	O 	0.052196	0.183388	0.743082	-0.467000
O 	O 	0.052196	0.816612	0.256918	-0.450000
O 	O 	0.243101	0.447785	0.816612	-0.399000
O 	O 	0.756899	0.447785	0.183388	-0.421000
O 	O 	0.243101	0.552215	0.183388	-0.430000
O 	O 	0.756899	0.552215	0.816612	-0.389000
O 	O 	0.243101	0.816612	0.552215	-0.399000
O 	O 	0.756899	0.183388	0.552215	-0.420000
O 	O 	0.243101	0.183388	0.447785	-0.430000
O 	O 	0.756899	0.816612	0.447785	-0.390000
O 	O 	0.316593	0.447785	0.256918	-0.419000
O 	O 	0.683407	0.447785	0.743082	-0.403000
O 	O 	0.683407	0.552215	0.256918	-0.417000
O 	O 	0.316593	0.552215	0.743082	-0.405000
O 	O 	0.947804	0.743082	0.183388	-0.327000
O 	O 	0.947804	0.256918	0.816612	-0.310000
O 	O 	0.052196	0.743082	0.816612	-0.437000
O 	O 	0.052196	0.256918	0.183388	-0.480000
O 	O 	0.683407	0.256918	0.552215	-0.417000
O 	O 	0.316593	0.743082	0.552215	-0.405000
O 	O 	0.316593	0.256918	0.447785	-0.419000
O 	O 	0.683407	0.743082	0.447785	-0.403000
O 	O 	0.052196	0.183388	0.256918	-0.480000
O 	O 	0.052196	0.816612	0.743082	-0.437000
O 	O 	0.947804	0.816612	0.256918	-0.310000
O 	O 	0.947804	0.183388	0.743082	-0.327000
O 	O 	0.756899	0.552215	0.183388	-0.420000
O 	O 	0.243101	0.552215	0.816612	-0.399000
O 	O 	0.756899	0.447785	0.816612	-0.390000
O 	O 	0.243101	0.447785	0.183388	-0.430000
O 	O 	0.756899	0.183388	0.447785	-0.421000
O 	O 	0.243101	0.816612	0.447785	-0.399000
O 	O 	0.756899	0.816612	0.552215	-0.389000
O 	O 	0.243101	0.183388	0.552215	-0.430000
O 	O 	0.683407	0.552215	0.743082	-0.403000
O 	O 	0.316593	0.552215	0.256918	-0.418000
O 	O 	0.316593	0.447785	0.743082	-0.405000
O 	O 	0.683407	0.447785	0.256918	-0.417000
O 	O 	0.052196	0.256918	0.816612	-0.450000
O 	O 	0.052196	0.743082	0.183388	-0.467000
O 	O 	0.947804	0.256918	0.183388	-0.340000
O 	O 	0.947804	0.743082	0.816612	-0.296000
O 	O 	0.816612	0.243101	0.447785	-0.399000
O 	O 	0.183388	0.756899	0.447785	-0.421000
O 	O 	0.183388	0.243101	0.552215	-0.430000
O 	O 	0.816612	0.756899	0.552215	-0.389000
O 	O 	0.447785	0.316593	0.743082	-0.405000
O 	O 	0.447785	0.683407	0.256918	-0.417000
O 	O 	0.552215	0.683407	0.743082	-0.403000
O 	O 	0.552215	0.316593	0.256918	-0.418000
O 	O 	0.743082	0.947804	0.816612	-0.296000
O 	O 	0.256918	0.947804	0.183388	-0.340000
O 	O 	0.743082	0.052196	0.183388	-0.467000
O 	O 	0.256918	0.052196	0.816612	-0.450000
O 	O 	0.743082	0.316593	0.552215	-0.405000
O 	O 	0.256918	0.683407	0.552215	-0.417000
O 	O 	0.743082	0.683407	0.447785	-0.403000
O 	O 	0.256918	0.316593	0.447785	-0.419000
O 	O 	0.816612	0.947804	0.256918	-0.310000
O 	O 	0.183388	0.947804	0.743082	-0.327000
O 	O 	0.183388	0.052196	0.256918	-0.480000
O 	O 	0.816612	0.052196	0.743082	-0.437000
O 	O 	0.447785	0.243101	0.183388	-0.430000
O 	O 	0.447785	0.756899	0.816612	-0.390000
O 	O 	0.552215	0.243101	0.816612	-0.399000
O 	O 	0.552215	0.756899	0.183388	-0.420000
O 	O 	0.183388	0.756899	0.552215	-0.420000
O 	O 	0.816612	0.243101	0.552215	-0.399000
O 	O 	0.816612	0.756899	0.447785	-0.390000
O 	O 	0.183388	0.243101	0.447785	-0.430000
O 	O 	0.552215	0.683407	0.256918	-0.417000
O 	O 	0.552215	0.316593	0.743082	-0.405000
O 	O 	0.447785	0.316593	0.256918	-0.419000
O 	O 	0.447785	0.683407	0.743082	-0.403000
O 	O 	0.256918	0.052196	0.183388	-0.480000
O 	O 	0.743082	0.052196	0.816612	-0.437000
O 	O 	0.256918	0.947804	0.816612	-0.310000
O 	O 	0.743082	0.947804	0.183388	-0.327000
O 	O 	0.256918	0.683407	0.447785	-0.417000
O 	O 	0.743082	0.316593	0.447785	-0.405000
O 	O 	0.256918	0.316593	0.552215	-0.418000
O 	O 	0.743082	0.683407	0.552215	-0.403000
O 	O 	0.183388	0.052196	0.743082	-0.467000
O 	O 	0.816612	0.052196	0.256918	-0.450000
O 	O 	0.816612	0.947804	0.743082	-0.296000
O 	O 	0.183388	0.947804	0.256918	-0.340000
O 	O 	0.552215	0.756899	0.816612	-0.389000
O 	O 	0.552215	0.243101	0.183388	-0.430000
O 	O 	0.447785	0.756899	0.183388	-0.421000
O 	O 	0.447785	0.243101	0.816612	-0.399000
O 	O 	0.816612	0.743082	0.947804	-0.296000
O 	O 	0.183388	0.256918	0.947804	-0.340000
O 	O 	0.183388	0.743082	0.052196	-0.467000
O 	O 	0.816612	0.256918	0.052196	-0.450000
O 	O 	0.447785	0.816612	0.243101	-0.399000
O 	O 	0.447785	0.183388	0.756899	-0.421000
O 	O 	0.552215	0.183388	0.243101	-0.430000
O 	O 	0.552215	0.816612	0.756899	-0.389000
O 	O 	0.743082	0.447785	0.316593	-0.405000
O 	O 	0.256918	0.447785	0.683407	-0.417000
O 	O 	0.743082	0.552215	0.683407	-0.403000
O 	O 	0.256918	0.552215	0.316593	-0.418000
O 	O 	0.743082	0.816612	0.052196	-0.437000
O 	O 	0.256918	0.183388	0.052196	-0.480000
O 	O 	0.743082	0.183388	0.947804	-0.327000
O 	O 	0.256918	0.816612	0.947804	-0.310000
O 	O 	0.816612	0.447785	0.756899	-0.390000
O 	O 	0.183388	0.447785	0.243101	-0.430000
O 	O 	0.183388	0.552215	0.756899	-0.420000
O 	O 	0.816612	0.552215	0.243101	-0.399000
O 	O 	0.447785	0.743082	0.683407	-0.403000
O 	O 	0.447785	0.256918	0.316593	-0.419000
O 	O 	0.552215	0.743082	0.316593	-0.405000
O 	O 	0.552215	0.256918	0.683407	-0.417000
O 	O 	0.183388	0.256918	0.052196	-0.480000
O 	O 	0.816612	0.743082	0.052196	-0.437000
O 	O 	0.816612	0.256918	0.947804	-0.310000
O 	O 	0.183388	0.743082	0.947804	-0.327000
O 	O 	0.552215	0.183388	0.756899	-0.420000
O 	O 	0.552215	0.816612	0.243101	-0.399000
O 	O 	0.447785	0.816612	0.756899	-0.390000
O 	O 	0.447785	0.183388	0.243101	-0.430000
O 	O 	0.256918	0.552215	0.683407	-0.417000
O 	O 	0.743082	0.552215	0.316593	-0.405000
O 	O 	0.256918	0.447785	0.316593	-0.419000
O 	O 	0.743082	0.447785	0.683407	-0.403000
O 	O 	0.256918	0.183388	0.947804	-0.340000
O 	O 	0.743082	0.816612	0.947804	-0.296000
O 	O 	0.256918	0.816612	0.052196	-0.450000
O 	O 	0.743082	0.183388	0.052196	-0.467000
O 	O 	0.183388	0.552215	0.243101	-0.430000
O 	O 	0.816612	0.552215	0.756899	-0.389000
O 	O 	0.816612	0.447785	0.243101	-0.399000
O 	O 	0.183388	0.447785	0.756899	-0.421000
O 	O 	0.552215	0.256918	0.316593	-0.418000
O 	O 	0.552215	0.743082	0.683407	-0.403000
O 	O 	0.447785	0.256918	0.683407	-0.417000
O 	O 	0.447785	0.743082	0.316593	-0.405000
_end
