data_hkust-1
_audit_creation_date              2011-03-21
_audit_creation_method            'Materials Studio'
_symmetry_space_group_name_H-M    'P1'
_symmetry_Int_Tables_number       1
_symmetry_cell_setting            triclinic
loop_
_symmetry_equiv_pos_as_xyz
  x,y,z
_cell_length_a                    26.3430
_cell_length_b                    26.3430
_cell_length_c                    26.3430
_cell_angle_alpha                 90.0000
_cell_angle_beta                  90.0000
_cell_angle_gamma                 90.0000
loop_
_atom_site_label
_atom_site_type_symbol
_atom_site_fract_x
_atom_site_fract_y
_atom_site_fract_z
_atom_site_U_iso_or_equiv
_atom_site_adp_type
_atom_site_occupancy
Cu1    Cu    0.28530   0.28530   0.00000   0.00000  Uiso   1.00
O2     O     0.31660   0.24310   0.94780   0.00000  Uiso   1.00
C3     C     0.32200   0.17800   0.88700   0.00000  Uiso   1.00
C4     C     0.29680   0.20320   0.93130   0.00000  Uiso   1.00
C5     C     0.36550   0.19940   0.86550   0.00000  Uiso   1.00
Cu6    Cu    0.71470   0.71470   0.00000   0.00000  Uiso   1.00
O7     O     0.68340   0.75690   0.94780   0.00000  Uiso   1.00
C8     C     0.67800   0.82200   0.88700   0.00000  Uiso   1.00
C9     C     0.70320   0.79680   0.93130   0.00000  Uiso   1.00
C10    C     0.63450   0.80060   0.86550   0.00000  Uiso   1.00
Cu11   Cu    0.71470   0.28530   0.00000   0.00000  Uiso   1.00
O12    O     0.68340   0.24310   0.05220   0.00000  Uiso   1.00
C13    C     0.67800   0.17800   0.11300   0.00000  Uiso   1.00
C14    C     0.70320   0.20320   0.06870   0.00000  Uiso   1.00
C15    C     0.63450   0.19940   0.13450   0.00000  Uiso   1.00
Cu16   Cu    0.28530   0.71470   0.00000   0.00000  Uiso   1.00
O17    O     0.31660   0.75690   0.05220   0.00000  Uiso   1.00
C18    C     0.32200   0.82200   0.11300   0.00000  Uiso   1.00
C19    C     0.29680   0.79680   0.06870   0.00000  Uiso   1.00
C20    C     0.36550   0.80060   0.13450   0.00000  Uiso   1.00
Cu21   Cu    0.00000   0.28530   0.28530   0.00000  Uiso   1.00
O22    O     0.94780   0.31660   0.24310   0.00000  Uiso   1.00
C23    C     0.88700   0.32200   0.17800   0.00000  Uiso   1.00
C24    C     0.93130   0.29680   0.20320   0.00000  Uiso   1.00
C25    C     0.86550   0.36550   0.19940   0.00000  Uiso   1.00
Cu26   Cu    0.00000   0.71470   0.71470   0.00000  Uiso   1.00
O27    O     0.94780   0.68340   0.75690   0.00000  Uiso   1.00
C28    C     0.88700   0.67800   0.82200   0.00000  Uiso   1.00
C29    C     0.93130   0.70320   0.79680   0.00000  Uiso   1.00
C30    C     0.86550   0.63450   0.80060   0.00000  Uiso   1.00
Cu31   Cu    0.00000   0.71470   0.28530   0.00000  Uiso   1.00
O32    O     0.05220   0.68340   0.24310   0.00000  Uiso   1.00
C33    C     0.11300   0.67800   0.17800   0.00000  Uiso   1.00
C34    C     0.06870   0.70320   0.20320   0.00000  Uiso   1.00
C35    C     0.13450   0.63450   0.19940   0.00000  Uiso   1.00
Cu36   Cu    0.00000   0.28530   0.71470   0.00000  Uiso   1.00
O37    O     0.05220   0.31660   0.75690   0.00000  Uiso   1.00
C38    C     0.11300   0.32200   0.82200   0.00000  Uiso   1.00
C39    C     0.06870   0.29680   0.79680   0.00000  Uiso   1.00
C40    C     0.13450   0.36550   0.80060   0.00000  Uiso   1.00
Cu41   Cu    0.28530   0.00000   0.28530   0.00000  Uiso   1.00
O42    O     0.24310   0.94780   0.31660   0.00000  Uiso   1.00
C43    C     0.17800   0.88700   0.32200   0.00000  Uiso   1.00
C44    C     0.20320   0.93130   0.29680   0.00000  Uiso   1.00
C45    C     0.19940   0.86550   0.36550   0.00000  Uiso   1.00
Cu46   Cu    0.71470   0.00000   0.71470   0.00000  Uiso   1.00
O47    O     0.75690   0.94780   0.68340   0.00000  Uiso   1.00
C48    C     0.82200   0.88700   0.67800   0.00000  Uiso   1.00
C49    C     0.79680   0.93130   0.70320   0.00000  Uiso   1.00
C50    C     0.80060   0.86550   0.63450   0.00000  Uiso   1.00
Cu51   Cu    0.28530   0.00000   0.71470   0.00000  Uiso   1.00
O52    O     0.24310   0.05220   0.68340   0.00000  Uiso   1.00
C53    C     0.17800   0.11300   0.67800   0.00000  Uiso   1.00
C54    C     0.20320   0.06870   0.70320   0.00000  Uiso   1.00
C55    C     0.19940   0.13450   0.63450   0.00000  Uiso   1.00
Cu56   Cu    0.71470   0.00000   0.28530   0.00000  Uiso   1.00
O57    O     0.75690   0.05220   0.31660   0.00000  Uiso   1.00
C58    C     0.82200   0.11300   0.32200   0.00000  Uiso   1.00
C59    C     0.79680   0.06870   0.29680   0.00000  Uiso   1.00
C60    C     0.80060   0.13450   0.36550   0.00000  Uiso   1.00
O61    O     0.24310   0.31660   0.05220   0.00000  Uiso   1.00
C62    C     0.17800   0.32200   0.11300   0.00000  Uiso   1.00
C63    C     0.20320   0.29680   0.06870   0.00000  Uiso   1.00
C64    C     0.19940   0.36550   0.13450   0.00000  Uiso   1.00
O65    O     0.75690   0.68340   0.05220   0.00000  Uiso   1.00
C66    C     0.82200   0.67800   0.11300   0.00000  Uiso   1.00
C67    C     0.79680   0.70320   0.06870   0.00000  Uiso   1.00
C68    C     0.80060   0.63450   0.13450   0.00000  Uiso   1.00
O69    O     0.24310   0.68340   0.94780   0.00000  Uiso   1.00
C70    C     0.17800   0.67800   0.88700   0.00000  Uiso   1.00
C71    C     0.20320   0.70320   0.93130   0.00000  Uiso   1.00
C72    C     0.19940   0.63450   0.86550   0.00000  Uiso   1.00
O73    O     0.75690   0.31660   0.94780   0.00000  Uiso   1.00
C74    C     0.82200   0.32200   0.88700   0.00000  Uiso   1.00
C75    C     0.79680   0.29680   0.93130   0.00000  Uiso   1.00
C76    C     0.80060   0.36550   0.86550   0.00000  Uiso   1.00
O77    O     0.31660   0.94780   0.75690   0.00000  Uiso   1.00
C78    C     0.32200   0.88700   0.82200   0.00000  Uiso   1.00
C79    C     0.29680   0.93130   0.79680   0.00000  Uiso   1.00
C80    C     0.36550   0.86550   0.80060   0.00000  Uiso   1.00
O81    O     0.68340   0.94780   0.24310   0.00000  Uiso   1.00
C82    C     0.67800   0.88700   0.17800   0.00000  Uiso   1.00
C83    C     0.70320   0.93130   0.20320   0.00000  Uiso   1.00
C84    C     0.63450   0.86550   0.19940   0.00000  Uiso   1.00
O85    O     0.68340   0.05220   0.75690   0.00000  Uiso   1.00
C86    C     0.67800   0.11300   0.82200   0.00000  Uiso   1.00
C87    C     0.70320   0.06870   0.79680   0.00000  Uiso   1.00
C88    C     0.63450   0.13450   0.80060   0.00000  Uiso   1.00
O89    O     0.31660   0.05220   0.24310   0.00000  Uiso   1.00
C90    C     0.32200   0.11300   0.17800   0.00000  Uiso   1.00
C91    C     0.29680   0.06870   0.20320   0.00000  Uiso   1.00
C92    C     0.36550   0.13450   0.19940   0.00000  Uiso   1.00
O93    O     0.94780   0.24310   0.68340   0.00000  Uiso   1.00
C94    C     0.88700   0.17800   0.67800   0.00000  Uiso   1.00
C95    C     0.93130   0.20320   0.70320   0.00000  Uiso   1.00
C96    C     0.86550   0.19940   0.63450   0.00000  Uiso   1.00
O97    O     0.94780   0.75690   0.31660   0.00000  Uiso   1.00
C98    C     0.88700   0.82200   0.32200   0.00000  Uiso   1.00
C99    C     0.93130   0.79680   0.29680   0.00000  Uiso   1.00
C100   C     0.86550   0.80060   0.36550   0.00000  Uiso   1.00
O101   O     0.05220   0.24310   0.31660   0.00000  Uiso   1.00
C102   C     0.11300   0.17800   0.32200   0.00000  Uiso   1.00
C103   C     0.06870   0.20320   0.29680   0.00000  Uiso   1.00
C104   C     0.13450   0.19940   0.36550   0.00000  Uiso   1.00
O105   O     0.05220   0.75690   0.68340   0.00000  Uiso   1.00
C106   C     0.11300   0.82200   0.67800   0.00000  Uiso   1.00
C107   C     0.06870   0.79680   0.70320   0.00000  Uiso   1.00
C108   C     0.13450   0.80060   0.63450   0.00000  Uiso   1.00
O109   O     0.68340   0.75690   0.05220   0.00000  Uiso   1.00
C110   C     0.67800   0.82200   0.11300   0.00000  Uiso   1.00
C111   C     0.70320   0.79680   0.06870   0.00000  Uiso   1.00
C112   C     0.63450   0.80060   0.13450   0.00000  Uiso   1.00
O113   O     0.31660   0.24310   0.05220   0.00000  Uiso   1.00
C114   C     0.32200   0.17800   0.11300   0.00000  Uiso   1.00
C115   C     0.29680   0.20320   0.06870   0.00000  Uiso   1.00
C116   C     0.36550   0.19940   0.13450   0.00000  Uiso   1.00
O117   O     0.31660   0.75690   0.94780   0.00000  Uiso   1.00
C118   C     0.32200   0.82200   0.88700   0.00000  Uiso   1.00
C119   C     0.29680   0.79680   0.93130   0.00000  Uiso   1.00
C120   C     0.36550   0.80060   0.86550   0.00000  Uiso   1.00
O121   O     0.68340   0.24310   0.94780   0.00000  Uiso   1.00
C122   C     0.67800   0.17800   0.88700   0.00000  Uiso   1.00
C123   C     0.70320   0.20320   0.93130   0.00000  Uiso   1.00
C124   C     0.63450   0.19940   0.86550   0.00000  Uiso   1.00
O125   O     0.05220   0.68340   0.75690   0.00000  Uiso   1.00
C126   C     0.11300   0.67800   0.82200   0.00000  Uiso   1.00
C127   C     0.06870   0.70320   0.79680   0.00000  Uiso   1.00
C128   C     0.13450   0.63450   0.80060   0.00000  Uiso   1.00
O129   O     0.05220   0.31660   0.24310   0.00000  Uiso   1.00
C130   C     0.11300   0.32200   0.17800   0.00000  Uiso   1.00
C131   C     0.06870   0.29680   0.20320   0.00000  Uiso   1.00
C132   C     0.13450   0.36550   0.19940   0.00000  Uiso   1.00
O133   O     0.94780   0.31660   0.75690   0.00000  Uiso   1.00
C134   C     0.88700   0.32200   0.82200   0.00000  Uiso   1.00
C135   C     0.93130   0.29680   0.79680   0.00000  Uiso   1.00
C136   C     0.86550   0.36550   0.80060   0.00000  Uiso   1.00
O137   O     0.94780   0.68340   0.24310   0.00000  Uiso   1.00
C138   C     0.88700   0.67800   0.17800   0.00000  Uiso   1.00
C139   C     0.93130   0.70320   0.20320   0.00000  Uiso   1.00
C140   C     0.86550   0.63450   0.19940   0.00000  Uiso   1.00
O141   O     0.75690   0.05220   0.68340   0.00000  Uiso   1.00
C142   C     0.82200   0.11300   0.67800   0.00000  Uiso   1.00
C143   C     0.79680   0.06870   0.70320   0.00000  Uiso   1.00
C144   C     0.80060   0.13450   0.63450   0.00000  Uiso   1.00
O145   O     0.24310   0.05220   0.31660   0.00000  Uiso   1.00
C146   C     0.17800   0.11300   0.32200   0.00000  Uiso   1.00
C147   C     0.20320   0.06870   0.29680   0.00000  Uiso   1.00
C148   C     0.19940   0.13450   0.36550   0.00000  Uiso   1.00
O149   O     0.75690   0.94780   0.31660   0.00000  Uiso   1.00
C150   C     0.82200   0.88700   0.32200   0.00000  Uiso   1.00
C151   C     0.79680   0.93130   0.29680   0.00000  Uiso   1.00
C152   C     0.80060   0.86550   0.36550   0.00000  Uiso   1.00
O153   O     0.24310   0.94780   0.68340   0.00000  Uiso   1.00
C154   C     0.17800   0.88700   0.67800   0.00000  Uiso   1.00
C155   C     0.20320   0.93130   0.70320   0.00000  Uiso   1.00
C156   C     0.19940   0.86550   0.63450   0.00000  Uiso   1.00
O157   O     0.75690   0.68340   0.94780   0.00000  Uiso   1.00
C158   C     0.82200   0.67800   0.88700   0.00000  Uiso   1.00
C159   C     0.79680   0.70320   0.93130   0.00000  Uiso   1.00
C160   C     0.80060   0.63450   0.86550   0.00000  Uiso   1.00
O161   O     0.24310   0.31660   0.94780   0.00000  Uiso   1.00
C162   C     0.17800   0.32200   0.88700   0.00000  Uiso   1.00
C163   C     0.20320   0.29680   0.93130   0.00000  Uiso   1.00
C164   C     0.19940   0.36550   0.86550   0.00000  Uiso   1.00
O165   O     0.75690   0.31660   0.05220   0.00000  Uiso   1.00
C166   C     0.82200   0.32200   0.11300   0.00000  Uiso   1.00
C167   C     0.79680   0.29680   0.06870   0.00000  Uiso   1.00
C168   C     0.80060   0.36550   0.13450   0.00000  Uiso   1.00
O169   O     0.24310   0.68340   0.05220   0.00000  Uiso   1.00
C170   C     0.17800   0.67800   0.11300   0.00000  Uiso   1.00
C171   C     0.20320   0.70320   0.06870   0.00000  Uiso   1.00
C172   C     0.19940   0.63450   0.13450   0.00000  Uiso   1.00
O173   O     0.68340   0.05220   0.24310   0.00000  Uiso   1.00
C174   C     0.67800   0.11300   0.17800   0.00000  Uiso   1.00
C175   C     0.70320   0.06870   0.20320   0.00000  Uiso   1.00
C176   C     0.63450   0.13450   0.19940   0.00000  Uiso   1.00
O177   O     0.31660   0.05220   0.75690   0.00000  Uiso   1.00
C178   C     0.32200   0.11300   0.82200   0.00000  Uiso   1.00
C179   C     0.29680   0.06870   0.79680   0.00000  Uiso   1.00
C180   C     0.36550   0.13450   0.80060   0.00000  Uiso   1.00
O181   O     0.31660   0.94780   0.24310   0.00000  Uiso   1.00
C182   C     0.32200   0.88700   0.17800   0.00000  Uiso   1.00
C183   C     0.29680   0.93130   0.20320   0.00000  Uiso   1.00
C184   C     0.36550   0.86550   0.19940   0.00000  Uiso   1.00
O185   O     0.68340   0.94780   0.75690   0.00000  Uiso   1.00
C186   C     0.67800   0.88700   0.82200   0.00000  Uiso   1.00
C187   C     0.70320   0.93130   0.79680   0.00000  Uiso   1.00
C188   C     0.63450   0.86550   0.80060   0.00000  Uiso   1.00
O189   O     0.05220   0.75690   0.31660   0.00000  Uiso   1.00
C190   C     0.11300   0.82200   0.32200   0.00000  Uiso   1.00
C191   C     0.06870   0.79680   0.29680   0.00000  Uiso   1.00
C192   C     0.13450   0.80060   0.36550   0.00000  Uiso   1.00
O193   O     0.05220   0.24310   0.68340   0.00000  Uiso   1.00
C194   C     0.11300   0.17800   0.67800   0.00000  Uiso   1.00
C195   C     0.06870   0.20320   0.70320   0.00000  Uiso   1.00
C196   C     0.13450   0.19940   0.63450   0.00000  Uiso   1.00
O197   O     0.94780   0.75690   0.68340   0.00000  Uiso   1.00
C198   C     0.88700   0.82200   0.67800   0.00000  Uiso   1.00
C199   C     0.93130   0.79680   0.70320   0.00000  Uiso   1.00
C200   C     0.86550   0.80060   0.63450   0.00000  Uiso   1.00
O201   O     0.94780   0.24310   0.31660   0.00000  Uiso   1.00
C202   C     0.88700   0.17800   0.32200   0.00000  Uiso   1.00
C203   C     0.93130   0.20320   0.29680   0.00000  Uiso   1.00
C204   C     0.86550   0.19940   0.36550   0.00000  Uiso   1.00
Cu205  Cu    0.28530   0.78530   0.50000   0.00000  Uiso   1.00
O206   O     0.31660   0.74310   0.44780   0.00000  Uiso   1.00
C207   C     0.32200   0.67800   0.38700   0.00000  Uiso   1.00
C208   C     0.29680   0.70320   0.43130   0.00000  Uiso   1.00
C209   C     0.36550   0.69940   0.36550   0.00000  Uiso   1.00
Cu210  Cu    0.71470   0.21470   0.50000   0.00000  Uiso   1.00
O211   O     0.68340   0.25690   0.44780   0.00000  Uiso   1.00
C212   C     0.67800   0.32200   0.38700   0.00000  Uiso   1.00
C213   C     0.70320   0.29680   0.43130   0.00000  Uiso   1.00
C214   C     0.63450   0.30060   0.36550   0.00000  Uiso   1.00
Cu215  Cu    0.71470   0.78530   0.50000   0.00000  Uiso   1.00
O216   O     0.68340   0.74310   0.55220   0.00000  Uiso   1.00
C217   C     0.67800   0.67800   0.61300   0.00000  Uiso   1.00
C218   C     0.70320   0.70320   0.56870   0.00000  Uiso   1.00
C219   C     0.63450   0.69940   0.63450   0.00000  Uiso   1.00
Cu220  Cu    0.28530   0.21470   0.50000   0.00000  Uiso   1.00
O221   O     0.31660   0.25690   0.55220   0.00000  Uiso   1.00
C222   C     0.32200   0.32200   0.61300   0.00000  Uiso   1.00
C223   C     0.29680   0.29680   0.56870   0.00000  Uiso   1.00
C224   C     0.36550   0.30060   0.63450   0.00000  Uiso   1.00
Cu225  Cu    0.00000   0.78530   0.78530   0.00000  Uiso   1.00
O226   O     0.94780   0.81660   0.74310   0.00000  Uiso   1.00
C227   C     0.86550   0.86550   0.69940   0.00000  Uiso   1.00
Cu228  Cu    0.00000   0.21470   0.21470   0.00000  Uiso   1.00
O229   O     0.94780   0.18340   0.25690   0.00000  Uiso   1.00
C230   C     0.86550   0.13450   0.30060   0.00000  Uiso   1.00
Cu231  Cu    0.00000   0.21470   0.78530   0.00000  Uiso   1.00
O232   O     0.05220   0.18340   0.74310   0.00000  Uiso   1.00
C233   C     0.13450   0.13450   0.69940   0.00000  Uiso   1.00
Cu234  Cu    0.00000   0.78530   0.21470   0.00000  Uiso   1.00
O235   O     0.05220   0.81660   0.25690   0.00000  Uiso   1.00
C236   C     0.13450   0.86550   0.30060   0.00000  Uiso   1.00
Cu237  Cu    0.28530   0.50000   0.78530   0.00000  Uiso   1.00
O238   O     0.24310   0.44780   0.81660   0.00000  Uiso   1.00
C239   C     0.17800   0.38700   0.82200   0.00000  Uiso   1.00
C240   C     0.20320   0.43130   0.79680   0.00000  Uiso   1.00
Cu241  Cu    0.71470   0.50000   0.21470   0.00000  Uiso   1.00
O242   O     0.75690   0.44780   0.18340   0.00000  Uiso   1.00
C243   C     0.82200   0.38700   0.17800   0.00000  Uiso   1.00
C244   C     0.79680   0.43130   0.20320   0.00000  Uiso   1.00
Cu245  Cu    0.28530   0.50000   0.21470   0.00000  Uiso   1.00
O246   O     0.24310   0.55220   0.18340   0.00000  Uiso   1.00
C247   C     0.17800   0.61300   0.17800   0.00000  Uiso   1.00
C248   C     0.20320   0.56870   0.20320   0.00000  Uiso   1.00
Cu249  Cu    0.71470   0.50000   0.78530   0.00000  Uiso   1.00
O250   O     0.75690   0.55220   0.81660   0.00000  Uiso   1.00
C251   C     0.82200   0.61300   0.82200   0.00000  Uiso   1.00
C252   C     0.79680   0.56870   0.79680   0.00000  Uiso   1.00
O253   O     0.24310   0.81660   0.55220   0.00000  Uiso   1.00
C254   C     0.17800   0.82200   0.61300   0.00000  Uiso   1.00
C255   C     0.20320   0.79680   0.56870   0.00000  Uiso   1.00
O256   O     0.75690   0.18340   0.55220   0.00000  Uiso   1.00
C257   C     0.82200   0.17800   0.61300   0.00000  Uiso   1.00
C258   C     0.79680   0.20320   0.56870   0.00000  Uiso   1.00
O259   O     0.24310   0.18340   0.44780   0.00000  Uiso   1.00
C260   C     0.17800   0.17800   0.38700   0.00000  Uiso   1.00
C261   C     0.20320   0.20320   0.43130   0.00000  Uiso   1.00
O262   O     0.75690   0.81660   0.44780   0.00000  Uiso   1.00
C263   C     0.82200   0.82200   0.38700   0.00000  Uiso   1.00
C264   C     0.79680   0.79680   0.43130   0.00000  Uiso   1.00
O265   O     0.31660   0.44780   0.25690   0.00000  Uiso   1.00
C266   C     0.32200   0.38700   0.32200   0.00000  Uiso   1.00
C267   C     0.29680   0.43130   0.29680   0.00000  Uiso   1.00
C268   C     0.36550   0.36550   0.30060   0.00000  Uiso   1.00
O269   O     0.68340   0.44780   0.74310   0.00000  Uiso   1.00
C270   C     0.67800   0.38700   0.67800   0.00000  Uiso   1.00
C271   C     0.70320   0.43130   0.70320   0.00000  Uiso   1.00
C272   C     0.63450   0.36550   0.69940   0.00000  Uiso   1.00
O273   O     0.68340   0.55220   0.25690   0.00000  Uiso   1.00
C274   C     0.67800   0.61300   0.32200   0.00000  Uiso   1.00
C275   C     0.70320   0.56870   0.29680   0.00000  Uiso   1.00
C276   C     0.63450   0.63450   0.30060   0.00000  Uiso   1.00
O277   O     0.31660   0.55220   0.74310   0.00000  Uiso   1.00
C278   C     0.32200   0.61300   0.67800   0.00000  Uiso   1.00
C279   C     0.29680   0.56870   0.70320   0.00000  Uiso   1.00
C280   C     0.36550   0.63450   0.69940   0.00000  Uiso   1.00
O281   O     0.94780   0.74310   0.18340   0.00000  Uiso   1.00
C282   C     0.86550   0.69940   0.13450   0.00000  Uiso   1.00
O283   O     0.94780   0.25690   0.81660   0.00000  Uiso   1.00
C284   C     0.86550   0.30060   0.86550   0.00000  Uiso   1.00
O285   O     0.05220   0.74310   0.81660   0.00000  Uiso   1.00
C286   C     0.13450   0.69940   0.86550   0.00000  Uiso   1.00
O287   O     0.05220   0.25690   0.18340   0.00000  Uiso   1.00
C288   C     0.13450   0.30060   0.13450   0.00000  Uiso   1.00
O289   O     0.68340   0.25690   0.55220   0.00000  Uiso   1.00
C290   C     0.67800   0.32200   0.61300   0.00000  Uiso   1.00
C291   C     0.70320   0.29680   0.56870   0.00000  Uiso   1.00
C292   C     0.63450   0.30060   0.63450   0.00000  Uiso   1.00
O293   O     0.31660   0.74310   0.55220   0.00000  Uiso   1.00
C294   C     0.32200   0.67800   0.61300   0.00000  Uiso   1.00
C295   C     0.29680   0.70320   0.56870   0.00000  Uiso   1.00
C296   C     0.36550   0.69940   0.63450   0.00000  Uiso   1.00
O297   O     0.31660   0.25690   0.44780   0.00000  Uiso   1.00
C298   C     0.32200   0.32200   0.38700   0.00000  Uiso   1.00
C299   C     0.29680   0.29680   0.43130   0.00000  Uiso   1.00
C300   C     0.36550   0.30060   0.36550   0.00000  Uiso   1.00
O301   O     0.68340   0.74310   0.44780   0.00000  Uiso   1.00
C302   C     0.67800   0.67800   0.38700   0.00000  Uiso   1.00
C303   C     0.70320   0.70320   0.43130   0.00000  Uiso   1.00
C304   C     0.63450   0.69940   0.36550   0.00000  Uiso   1.00
O305   O     0.05220   0.18340   0.25690   0.00000  Uiso   1.00
C306   C     0.13450   0.13450   0.30060   0.00000  Uiso   1.00
O307   O     0.05220   0.81660   0.74310   0.00000  Uiso   1.00
C308   C     0.13450   0.86550   0.69940   0.00000  Uiso   1.00
O309   O     0.94780   0.81660   0.25690   0.00000  Uiso   1.00
C310   C     0.86550   0.86550   0.30060   0.00000  Uiso   1.00
O311   O     0.94780   0.18340   0.74310   0.00000  Uiso   1.00
C312   C     0.86550   0.13450   0.69940   0.00000  Uiso   1.00
O313   O     0.75690   0.55220   0.18340   0.00000  Uiso   1.00
C314   C     0.82200   0.61300   0.17800   0.00000  Uiso   1.00
C315   C     0.79680   0.56870   0.20320   0.00000  Uiso   1.00
O316   O     0.24310   0.55220   0.81660   0.00000  Uiso   1.00
C317   C     0.17800   0.61300   0.82200   0.00000  Uiso   1.00
C318   C     0.20320   0.56870   0.79680   0.00000  Uiso   1.00
O319   O     0.75690   0.44780   0.81660   0.00000  Uiso   1.00
C320   C     0.82200   0.38700   0.82200   0.00000  Uiso   1.00
C321   C     0.79680   0.43130   0.79680   0.00000  Uiso   1.00
O322   O     0.24310   0.44780   0.18340   0.00000  Uiso   1.00
C323   C     0.17800   0.38700   0.17800   0.00000  Uiso   1.00
C324   C     0.20320   0.43130   0.20320   0.00000  Uiso   1.00
O325   O     0.75690   0.18340   0.44780   0.00000  Uiso   1.00
C326   C     0.82200   0.17800   0.38700   0.00000  Uiso   1.00
C327   C     0.79680   0.20320   0.43130   0.00000  Uiso   1.00
O328   O     0.24310   0.81660   0.44780   0.00000  Uiso   1.00
C329   C     0.17800   0.82200   0.38700   0.00000  Uiso   1.00
C330   C     0.20320   0.79680   0.43130   0.00000  Uiso   1.00
O331   O     0.75690   0.81660   0.55220   0.00000  Uiso   1.00
C332   C     0.82200   0.82200   0.61300   0.00000  Uiso   1.00
C333   C     0.79680   0.79680   0.56870   0.00000  Uiso   1.00
O334   O     0.24310   0.18340   0.55220   0.00000  Uiso   1.00
C335   C     0.17800   0.17800   0.61300   0.00000  Uiso   1.00
C336   C     0.20320   0.20320   0.56870   0.00000  Uiso   1.00
O337   O     0.68340   0.55220   0.74310   0.00000  Uiso   1.00
C338   C     0.67800   0.61300   0.67800   0.00000  Uiso   1.00
C339   C     0.70320   0.56870   0.70320   0.00000  Uiso   1.00
C340   C     0.63450   0.63450   0.69940   0.00000  Uiso   1.00
O341   O     0.31660   0.55220   0.25690   0.00000  Uiso   1.00
C342   C     0.32200   0.61300   0.32200   0.00000  Uiso   1.00
C343   C     0.29680   0.56870   0.29680   0.00000  Uiso   1.00
C344   C     0.36550   0.63450   0.30060   0.00000  Uiso   1.00
O345   O     0.31660   0.44780   0.74310   0.00000  Uiso   1.00
C346   C     0.32200   0.38700   0.67800   0.00000  Uiso   1.00
C347   C     0.29680   0.43130   0.70320   0.00000  Uiso   1.00
C348   C     0.36550   0.36550   0.69940   0.00000  Uiso   1.00
O349   O     0.68340   0.44780   0.25690   0.00000  Uiso   1.00
C350   C     0.67800   0.38700   0.32200   0.00000  Uiso   1.00
C351   C     0.70320   0.43130   0.29680   0.00000  Uiso   1.00
C352   C     0.63450   0.36550   0.30060   0.00000  Uiso   1.00
O353   O     0.05220   0.25690   0.81660   0.00000  Uiso   1.00
C354   C     0.13450   0.30060   0.86550   0.00000  Uiso   1.00
O355   O     0.05220   0.74310   0.18340   0.00000  Uiso   1.00
C356   C     0.13450   0.69940   0.13450   0.00000  Uiso   1.00
O357   O     0.94780   0.25690   0.18340   0.00000  Uiso   1.00
C358   C     0.86550   0.30060   0.13450   0.00000  Uiso   1.00
O359   O     0.94780   0.74310   0.81660   0.00000  Uiso   1.00
C360   C     0.86550   0.69940   0.86550   0.00000  Uiso   1.00
Cu361  Cu    0.78530   0.28530   0.50000   0.00000  Uiso   1.00
O362   O     0.81660   0.24310   0.44780   0.00000  Uiso   1.00
Cu363  Cu    0.21470   0.71470   0.50000   0.00000  Uiso   1.00
O364   O     0.18340   0.75690   0.44780   0.00000  Uiso   1.00
Cu365  Cu    0.21470   0.28530   0.50000   0.00000  Uiso   1.00
O366   O     0.18340   0.24310   0.55220   0.00000  Uiso   1.00
Cu367  Cu    0.78530   0.71470   0.50000   0.00000  Uiso   1.00
O368   O     0.81660   0.75690   0.55220   0.00000  Uiso   1.00
Cu369  Cu    0.50000   0.28530   0.78530   0.00000  Uiso   1.00
O370   O     0.44780   0.31660   0.74310   0.00000  Uiso   1.00
C371   C     0.38700   0.32200   0.67800   0.00000  Uiso   1.00
C372   C     0.43130   0.29680   0.70320   0.00000  Uiso   1.00
Cu373  Cu    0.50000   0.71470   0.21470   0.00000  Uiso   1.00
O374   O     0.44780   0.68340   0.25690   0.00000  Uiso   1.00
C375   C     0.38700   0.67800   0.32200   0.00000  Uiso   1.00
C376   C     0.43130   0.70320   0.29680   0.00000  Uiso   1.00
Cu377  Cu    0.50000   0.71470   0.78530   0.00000  Uiso   1.00
O378   O     0.55220   0.68340   0.74310   0.00000  Uiso   1.00
C379   C     0.61300   0.67800   0.67800   0.00000  Uiso   1.00
C380   C     0.56870   0.70320   0.70320   0.00000  Uiso   1.00
Cu381  Cu    0.50000   0.28530   0.21470   0.00000  Uiso   1.00
O382   O     0.55220   0.31660   0.25690   0.00000  Uiso   1.00
C383   C     0.61300   0.32200   0.32200   0.00000  Uiso   1.00
C384   C     0.56870   0.29680   0.29680   0.00000  Uiso   1.00
Cu385  Cu    0.78530   0.00000   0.78530   0.00000  Uiso   1.00
O386   O     0.74310   0.94780   0.81660   0.00000  Uiso   1.00
C387   C     0.69940   0.86550   0.86550   0.00000  Uiso   1.00
Cu388  Cu    0.21470   0.00000   0.21470   0.00000  Uiso   1.00
O389   O     0.25690   0.94780   0.18340   0.00000  Uiso   1.00
C390   C     0.30060   0.86550   0.13450   0.00000  Uiso   1.00
Cu391  Cu    0.78530   0.00000   0.21470   0.00000  Uiso   1.00
O392   O     0.74310   0.05220   0.18340   0.00000  Uiso   1.00
C393   C     0.69940   0.13450   0.13450   0.00000  Uiso   1.00
Cu394  Cu    0.21470   0.00000   0.78530   0.00000  Uiso   1.00
O395   O     0.25690   0.05220   0.81660   0.00000  Uiso   1.00
C396   C     0.30060   0.13450   0.86550   0.00000  Uiso   1.00
O397   O     0.74310   0.31660   0.55220   0.00000  Uiso   1.00
C398   C     0.69940   0.36550   0.63450   0.00000  Uiso   1.00
O399   O     0.25690   0.68340   0.55220   0.00000  Uiso   1.00
C400   C     0.30060   0.63450   0.63450   0.00000  Uiso   1.00
O401   O     0.74310   0.68340   0.44780   0.00000  Uiso   1.00
C402   C     0.69940   0.63450   0.36550   0.00000  Uiso   1.00
O403   O     0.25690   0.31660   0.44780   0.00000  Uiso   1.00
C404   C     0.30060   0.36550   0.36550   0.00000  Uiso   1.00
O405   O     0.81660   0.94780   0.25690   0.00000  Uiso   1.00
O406   O     0.18340   0.94780   0.74310   0.00000  Uiso   1.00
O407   O     0.18340   0.05220   0.25690   0.00000  Uiso   1.00
O408   O     0.81660   0.05220   0.74310   0.00000  Uiso   1.00
O409   O     0.44780   0.24310   0.18340   0.00000  Uiso   1.00
C410   C     0.38700   0.17800   0.17800   0.00000  Uiso   1.00
C411   C     0.43130   0.20320   0.20320   0.00000  Uiso   1.00
O412   O     0.44780   0.75690   0.81660   0.00000  Uiso   1.00
C413   C     0.38700   0.82200   0.82200   0.00000  Uiso   1.00
C414   C     0.43130   0.79680   0.79680   0.00000  Uiso   1.00
O415   O     0.55220   0.24310   0.81660   0.00000  Uiso   1.00
C416   C     0.61300   0.17800   0.82200   0.00000  Uiso   1.00
C417   C     0.56870   0.20320   0.79680   0.00000  Uiso   1.00
O418   O     0.55220   0.75690   0.18340   0.00000  Uiso   1.00
C419   C     0.61300   0.82200   0.17800   0.00000  Uiso   1.00
C420   C     0.56870   0.79680   0.20320   0.00000  Uiso   1.00
O421   O     0.18340   0.75690   0.55220   0.00000  Uiso   1.00
O422   O     0.81660   0.24310   0.55220   0.00000  Uiso   1.00
O423   O     0.81660   0.75690   0.44780   0.00000  Uiso   1.00
O424   O     0.18340   0.24310   0.44780   0.00000  Uiso   1.00
O425   O     0.55220   0.68340   0.25690   0.00000  Uiso   1.00
C426   C     0.61300   0.67800   0.32200   0.00000  Uiso   1.00
C427   C     0.56870   0.70320   0.29680   0.00000  Uiso   1.00
O428   O     0.55220   0.31660   0.74310   0.00000  Uiso   1.00
C429   C     0.61300   0.32200   0.67800   0.00000  Uiso   1.00
C430   C     0.56870   0.29680   0.70320   0.00000  Uiso   1.00
O431   O     0.44780   0.31660   0.25690   0.00000  Uiso   1.00
C432   C     0.38700   0.32200   0.32200   0.00000  Uiso   1.00
C433   C     0.43130   0.29680   0.29680   0.00000  Uiso   1.00
O434   O     0.44780   0.68340   0.74310   0.00000  Uiso   1.00
C435   C     0.38700   0.67800   0.67800   0.00000  Uiso   1.00
C436   C     0.43130   0.70320   0.70320   0.00000  Uiso   1.00
O437   O     0.25690   0.05220   0.18340   0.00000  Uiso   1.00
C438   C     0.30060   0.13450   0.13450   0.00000  Uiso   1.00
O439   O     0.74310   0.05220   0.81660   0.00000  Uiso   1.00
C440   C     0.69940   0.13450   0.86550   0.00000  Uiso   1.00
O441   O     0.25690   0.94780   0.81660   0.00000  Uiso   1.00
C442   C     0.30060   0.86550   0.86550   0.00000  Uiso   1.00
O443   O     0.74310   0.94780   0.18340   0.00000  Uiso   1.00
C444   C     0.69940   0.86550   0.13450   0.00000  Uiso   1.00
O445   O     0.25690   0.68340   0.44780   0.00000  Uiso   1.00
C446   C     0.30060   0.63450   0.36550   0.00000  Uiso   1.00
O447   O     0.74310   0.31660   0.44780   0.00000  Uiso   1.00
C448   C     0.69940   0.36550   0.36550   0.00000  Uiso   1.00
O449   O     0.25690   0.31660   0.55220   0.00000  Uiso   1.00
C450   C     0.30060   0.36550   0.63450   0.00000  Uiso   1.00
O451   O     0.74310   0.68340   0.55220   0.00000  Uiso   1.00
C452   C     0.69940   0.63450   0.63450   0.00000  Uiso   1.00
O453   O     0.18340   0.05220   0.74310   0.00000  Uiso   1.00
O454   O     0.81660   0.05220   0.25690   0.00000  Uiso   1.00
O455   O     0.81660   0.94780   0.74310   0.00000  Uiso   1.00
O456   O     0.18340   0.94780   0.25690   0.00000  Uiso   1.00
O457   O     0.55220   0.75690   0.81660   0.00000  Uiso   1.00
C458   C     0.61300   0.82200   0.82200   0.00000  Uiso   1.00
C459   C     0.56870   0.79680   0.79680   0.00000  Uiso   1.00
O460   O     0.55220   0.24310   0.18340   0.00000  Uiso   1.00
C461   C     0.61300   0.17800   0.17800   0.00000  Uiso   1.00
C462   C     0.56870   0.20320   0.20320   0.00000  Uiso   1.00
O463   O     0.44780   0.75690   0.18340   0.00000  Uiso   1.00
C464   C     0.38700   0.82200   0.17800   0.00000  Uiso   1.00
C465   C     0.43130   0.79680   0.20320   0.00000  Uiso   1.00
O466   O     0.44780   0.24310   0.81660   0.00000  Uiso   1.00
C467   C     0.38700   0.17800   0.82200   0.00000  Uiso   1.00
C468   C     0.43130   0.20320   0.79680   0.00000  Uiso   1.00
Cu469  Cu    0.78530   0.78530   0.00000   0.00000  Uiso   1.00
O470   O     0.81660   0.74310   0.94780   0.00000  Uiso   1.00
Cu471  Cu    0.21470   0.21470   0.00000   0.00000  Uiso   1.00
O472   O     0.18340   0.25690   0.94780   0.00000  Uiso   1.00
Cu473  Cu    0.21470   0.78530   0.00000   0.00000  Uiso   1.00
O474   O     0.18340   0.74310   0.05220   0.00000  Uiso   1.00
Cu475  Cu    0.78530   0.21470   0.00000   0.00000  Uiso   1.00
O476   O     0.81660   0.25690   0.05220   0.00000  Uiso   1.00
Cu477  Cu    0.50000   0.78530   0.28530   0.00000  Uiso   1.00
O478   O     0.44780   0.81660   0.24310   0.00000  Uiso   1.00
Cu479  Cu    0.50000   0.21470   0.71470   0.00000  Uiso   1.00
O480   O     0.44780   0.18340   0.75690   0.00000  Uiso   1.00
Cu481  Cu    0.50000   0.21470   0.28530   0.00000  Uiso   1.00
O482   O     0.55220   0.18340   0.24310   0.00000  Uiso   1.00
Cu483  Cu    0.50000   0.78530   0.71470   0.00000  Uiso   1.00
O484   O     0.55220   0.81660   0.75690   0.00000  Uiso   1.00
Cu485  Cu    0.78530   0.50000   0.28530   0.00000  Uiso   1.00
O486   O     0.74310   0.44780   0.31660   0.00000  Uiso   1.00
Cu487  Cu    0.21470   0.50000   0.71470   0.00000  Uiso   1.00
O488   O     0.25690   0.44780   0.68340   0.00000  Uiso   1.00
Cu489  Cu    0.78530   0.50000   0.71470   0.00000  Uiso   1.00
O490   O     0.74310   0.55220   0.68340   0.00000  Uiso   1.00
Cu491  Cu    0.21470   0.50000   0.28530   0.00000  Uiso   1.00
O492   O     0.25690   0.55220   0.31660   0.00000  Uiso   1.00
O493   O     0.74310   0.81660   0.05220   0.00000  Uiso   1.00
O494   O     0.25690   0.18340   0.05220   0.00000  Uiso   1.00
O495   O     0.74310   0.18340   0.94780   0.00000  Uiso   1.00
O496   O     0.25690   0.81660   0.94780   0.00000  Uiso   1.00
O497   O     0.81660   0.44780   0.75690   0.00000  Uiso   1.00
O498   O     0.18340   0.44780   0.24310   0.00000  Uiso   1.00
O499   O     0.18340   0.55220   0.75690   0.00000  Uiso   1.00
O500   O     0.81660   0.55220   0.24310   0.00000  Uiso   1.00
O501   O     0.44780   0.74310   0.68340   0.00000  Uiso   1.00
O502   O     0.44780   0.25690   0.31660   0.00000  Uiso   1.00
O503   O     0.55220   0.74310   0.31660   0.00000  Uiso   1.00
O504   O     0.55220   0.25690   0.68340   0.00000  Uiso   1.00
O505   O     0.18340   0.25690   0.05220   0.00000  Uiso   1.00
O506   O     0.81660   0.74310   0.05220   0.00000  Uiso   1.00
O507   O     0.81660   0.25690   0.94780   0.00000  Uiso   1.00
O508   O     0.18340   0.74310   0.94780   0.00000  Uiso   1.00
O509   O     0.55220   0.18340   0.75690   0.00000  Uiso   1.00
O510   O     0.55220   0.81660   0.24310   0.00000  Uiso   1.00
O511   O     0.44780   0.81660   0.75690   0.00000  Uiso   1.00
O512   O     0.44780   0.18340   0.24310   0.00000  Uiso   1.00
O513   O     0.25690   0.55220   0.68340   0.00000  Uiso   1.00
O514   O     0.74310   0.55220   0.31660   0.00000  Uiso   1.00
O515   O     0.25690   0.44780   0.31660   0.00000  Uiso   1.00
O516   O     0.74310   0.44780   0.68340   0.00000  Uiso   1.00
O517   O     0.25690   0.18340   0.94780   0.00000  Uiso   1.00
O518   O     0.74310   0.81660   0.94780   0.00000  Uiso   1.00
O519   O     0.25690   0.81660   0.05220   0.00000  Uiso   1.00
O520   O     0.74310   0.18340   0.05220   0.00000  Uiso   1.00
O521   O     0.18340   0.55220   0.24310   0.00000  Uiso   1.00
O522   O     0.81660   0.55220   0.75690   0.00000  Uiso   1.00
O523   O     0.81660   0.44780   0.24310   0.00000  Uiso   1.00
O524   O     0.18340   0.44780   0.75690   0.00000  Uiso   1.00
O525   O     0.55220   0.25690   0.31660   0.00000  Uiso   1.00
O526   O     0.55220   0.74310   0.68340   0.00000  Uiso   1.00
O527   O     0.44780   0.25690   0.68340   0.00000  Uiso   1.00
O528   O     0.44780   0.74310   0.31660   0.00000  Uiso   1.00
H529   H     0.38353   0.23440   0.88345   0.00000  Uiso   1.00
H530   H     0.61647   0.76560   0.88345   0.00000  Uiso   1.00
H531   H     0.61647   0.23440   0.11655   0.00000  Uiso   1.00
H532   H     0.38353   0.76560   0.11655   0.00000  Uiso   1.00
H533   H     0.88345   0.38353   0.23440   0.00000  Uiso   1.00
H534   H     0.88345   0.61647   0.76560   0.00000  Uiso   1.00
H535   H     0.11655   0.61647   0.23440   0.00000  Uiso   1.00
H536   H     0.11655   0.38353   0.76560   0.00000  Uiso   1.00
H537   H     0.23440   0.88345   0.38353   0.00000  Uiso   1.00
H538   H     0.76560   0.88345   0.61647   0.00000  Uiso   1.00
H539   H     0.23440   0.11655   0.61647   0.00000  Uiso   1.00
H540   H     0.76560   0.11655   0.38353   0.00000  Uiso   1.00
H541   H     0.23440   0.38353   0.11655   0.00000  Uiso   1.00
H542   H     0.76560   0.61647   0.11655   0.00000  Uiso   1.00
H543   H     0.23440   0.61647   0.88345   0.00000  Uiso   1.00
H544   H     0.76560   0.38353   0.88345   0.00000  Uiso   1.00
H545   H     0.38353   0.88345   0.76560   0.00000  Uiso   1.00
H546   H     0.61647   0.88345   0.23440   0.00000  Uiso   1.00
H547   H     0.61647   0.11655   0.76560   0.00000  Uiso   1.00
H548   H     0.38353   0.11655   0.23440   0.00000  Uiso   1.00
H549   H     0.88345   0.23440   0.61647   0.00000  Uiso   1.00
H550   H     0.88345   0.76560   0.38353   0.00000  Uiso   1.00
H551   H     0.11655   0.23440   0.38353   0.00000  Uiso   1.00
H552   H     0.11655   0.76560   0.61647   0.00000  Uiso   1.00
H553   H     0.61647   0.76560   0.11655   0.00000  Uiso   1.00
H554   H     0.38353   0.23440   0.11655   0.00000  Uiso   1.00
H555   H     0.38353   0.76560   0.88345   0.00000  Uiso   1.00
H556   H     0.61647   0.23440   0.88345   0.00000  Uiso   1.00
H557   H     0.11655   0.61647   0.76560   0.00000  Uiso   1.00
H558   H     0.11655   0.38353   0.23440   0.00000  Uiso   1.00
H559   H     0.88345   0.38353   0.76560   0.00000  Uiso   1.00
H560   H     0.88345   0.61647   0.23440   0.00000  Uiso   1.00
H561   H     0.76560   0.11655   0.61647   0.00000  Uiso   1.00
H562   H     0.23440   0.11655   0.38353   0.00000  Uiso   1.00
H563   H     0.76560   0.88345   0.38353   0.00000  Uiso   1.00
H564   H     0.23440   0.88345   0.61647   0.00000  Uiso   1.00
H565   H     0.76560   0.61647   0.88345   0.00000  Uiso   1.00
H566   H     0.23440   0.38353   0.88345   0.00000  Uiso   1.00
H567   H     0.76560   0.38353   0.11655   0.00000  Uiso   1.00
H568   H     0.23440   0.61647   0.11655   0.00000  Uiso   1.00
H569   H     0.61647   0.11655   0.23440   0.00000  Uiso   1.00
H570   H     0.38353   0.11655   0.76560   0.00000  Uiso   1.00
H571   H     0.38353   0.88345   0.23440   0.00000  Uiso   1.00
H572   H     0.61647   0.88345   0.76560   0.00000  Uiso   1.00
H573   H     0.11655   0.76560   0.38353   0.00000  Uiso   1.00
H574   H     0.11655   0.23440   0.61647   0.00000  Uiso   1.00
H575   H     0.88345   0.76560   0.61647   0.00000  Uiso   1.00
H576   H     0.88345   0.23440   0.38353   0.00000  Uiso   1.00
H577   H     0.38353   0.73440   0.38345   0.00000  Uiso   1.00
H578   H     0.61647   0.26560   0.38345   0.00000  Uiso   1.00
H579   H     0.61647   0.73440   0.61655   0.00000  Uiso   1.00
H580   H     0.38353   0.26560   0.61655   0.00000  Uiso   1.00
H581   H     0.88353   0.88345   0.73440   0.00000  Uiso   1.00
H582   H     0.88353   0.11655   0.26560   0.00000  Uiso   1.00
H583   H     0.11647   0.11655   0.73440   0.00000  Uiso   1.00
H584   H     0.11647   0.88345   0.26560   0.00000  Uiso   1.00
H585   H     0.38353   0.38345   0.26560   0.00000  Uiso   1.00
H586   H     0.61647   0.38345   0.73440   0.00000  Uiso   1.00
H587   H     0.61647   0.61655   0.26560   0.00000  Uiso   1.00
H588   H     0.38353   0.61655   0.73440   0.00000  Uiso   1.00
H589   H     0.88353   0.73440   0.11655   0.00000  Uiso   1.00
H590   H     0.88353   0.26560   0.88345   0.00000  Uiso   1.00
H591   H     0.11647   0.73440   0.88345   0.00000  Uiso   1.00
H592   H     0.11647   0.26560   0.11655   0.00000  Uiso   1.00
H593   H     0.61647   0.26560   0.61655   0.00000  Uiso   1.00
H594   H     0.38353   0.73440   0.61655   0.00000  Uiso   1.00
H595   H     0.38353   0.26560   0.38345   0.00000  Uiso   1.00
H596   H     0.61647   0.73440   0.38345   0.00000  Uiso   1.00
H597   H     0.11655   0.11647   0.26560   0.00000  Uiso   1.00
H598   H     0.11655   0.88353   0.73440   0.00000  Uiso   1.00
H599   H     0.88345   0.88353   0.26560   0.00000  Uiso   1.00
H600   H     0.88345   0.11647   0.73440   0.00000  Uiso   1.00
H601   H     0.61647   0.61655   0.73440   0.00000  Uiso   1.00
H602   H     0.38353   0.61655   0.26560   0.00000  Uiso   1.00
H603   H     0.38353   0.38345   0.73440   0.00000  Uiso   1.00
H604   H     0.61647   0.38345   0.26560   0.00000  Uiso   1.00
H605   H     0.11655   0.26560   0.88353   0.00000  Uiso   1.00
H606   H     0.11655   0.73440   0.11647   0.00000  Uiso   1.00
H607   H     0.88345   0.26560   0.11647   0.00000  Uiso   1.00
H608   H     0.88345   0.73440   0.88353   0.00000  Uiso   1.00
H609   H     0.73440   0.88353   0.88345   0.00000  Uiso   1.00
H610   H     0.26560   0.88353   0.11655   0.00000  Uiso   1.00
H611   H     0.73440   0.11647   0.11655   0.00000  Uiso   1.00
H612   H     0.26560   0.11647   0.88345   0.00000  Uiso   1.00
H613   H     0.73440   0.38345   0.61647   0.00000  Uiso   1.00
H614   H     0.26560   0.61655   0.61647   0.00000  Uiso   1.00
H615   H     0.73440   0.61655   0.38353   0.00000  Uiso   1.00
H616   H     0.26560   0.38345   0.38353   0.00000  Uiso   1.00
H617   H     0.26560   0.11655   0.11647   0.00000  Uiso   1.00
H618   H     0.73440   0.11655   0.88353   0.00000  Uiso   1.00
H619   H     0.26560   0.88345   0.88353   0.00000  Uiso   1.00
H620   H     0.73440   0.88345   0.11647   0.00000  Uiso   1.00
H621   H     0.26560   0.61647   0.38345   0.00000  Uiso   1.00
H622   H     0.73440   0.38353   0.38345   0.00000  Uiso   1.00
H623   H     0.26560   0.38353   0.61655   0.00000  Uiso   1.00
H624   H     0.73440   0.61647   0.61655   0.00000  Uiso   1.00
loop_
_geom_bond_atom_site_label_1
_geom_bond_atom_site_label_2
_geom_bond_distance
_geom_bond_site_symmetry_2
_ccdc_geom_bond_type
Cu1    O61     1.951   .     S
Cu1    O113    1.951   .     S
Cu1    Cu471   2.630   .     S
Cu1    O2      1.951   1_554 S
Cu1    O161    1.951   1_554 S
O2     C4      1.251   .     A
O2     Cu1     1.951   1_556 S
C3     C4      1.498   .     S
C3     C5      1.397   .     A
C3     C396    1.397   .     A
C4     O517    1.251   .     A
C5     C467    1.397   .     A
C5     H529    1.140   .     S
Cu6    O65     1.951   .     S
Cu6    O109    1.951   .     S
Cu6    Cu469   2.630   .     S
Cu6    O7      1.951   1_554 S
Cu6    O157    1.951   1_554 S
O7     C9      1.251   .     A
O7     Cu6     1.951   1_556 S
C8     C9      1.498   .     S
C8     C10     1.397   .     A
C8     C387    1.397   .     A
C9     O518    1.251   .     A
C10    C458    1.397   .     A
C10    H530    1.140   .     S
Cu11   O12     1.951   .     S
Cu11   O165    1.951   .     S
Cu11   Cu475   2.630   .     S
Cu11   O73     1.951   1_554 S
Cu11   O121    1.951   1_554 S
O12    C14     1.251   .     A
C13    C14     1.498   .     S
C13    C15     1.397   .     A
C13    C393    1.397   .     A
C14    O520    1.251   .     A
C15    C461    1.397   .     A
C15    H531    1.140   .     S
Cu16   O17     1.951   .     S
Cu16   O169    1.951   .     S
Cu16   Cu473   2.630   .     S
Cu16   O69     1.951   1_554 S
Cu16   O117    1.951   1_554 S
O17    C19     1.251   .     A
C18    C19     1.498   .     S
C18    C20     1.397   .     A
C18    C390    1.397   .     A
C19    O519    1.251   .     A
C20    C464    1.397   .     A
C20    H532    1.140   .     S
Cu21   O101    1.951   .     S
Cu21   O129    1.951   .     S
Cu21   Cu228   2.630   .     S
Cu21   O22     1.951   1_455 S
Cu21   O201    1.951   1_455 S
O22    C24     1.251   .     A
O22    Cu21    1.951   1_655 S
C23    C24     1.498   .     S
C23    C25     1.397   .     A
C23    C358    1.397   .     A
C24    O357    1.251   .     A
C25    C243    1.397   .     A
C25    H533    1.140   .     S
Cu26   O105    1.951   .     S
Cu26   O125    1.951   .     S
Cu26   Cu225   2.630   .     S
Cu26   O27     1.951   1_455 S
Cu26   O197    1.951   1_455 S
O27    C29     1.251   .     A
O27    Cu26    1.951   1_655 S
C28    C29     1.498   .     S
C28    C30     1.397   .     A
C28    C360    1.397   .     A
C29    O359    1.251   .     A
C30    C251    1.397   .     A
C30    H534    1.140   .     S
Cu31   O32     1.951   .     S
Cu31   O189    1.951   .     S
Cu31   Cu234   2.630   .     S
Cu31   O97     1.951   1_455 S
Cu31   O137    1.951   1_455 S
O32    C34     1.251   .     A
C33    C34     1.498   .     S
C33    C35     1.397   .     A
C33    C356    1.397   .     A
C34    O355    1.251   .     A
C35    C247    1.397   .     A
C35    H535    1.140   .     S
Cu36   O37     1.951   .     S
Cu36   O193    1.951   .     S
Cu36   Cu231   2.630   .     S
Cu36   O93     1.951   1_455 S
Cu36   O133    1.951   1_455 S
O37    C39     1.251   .     A
C38    C39     1.498   .     S
C38    C40     1.397   .     A
C38    C354    1.397   .     A
C39    O353    1.251   .     A
C40    C239    1.397   .     A
C40    H536    1.140   .     S
Cu41   O89     1.951   .     S
Cu41   O145    1.951   .     S
Cu41   Cu388   2.630   .     S
Cu41   O42     1.951   1_545 S
Cu41   O181    1.951   1_545 S
O42    C44     1.251   .     A
O42    Cu41    1.951   1_565 S
C43    C44     1.498   .     S
C43    C45     1.397   .     A
C43    C236    1.397   .     A
C44    O456    1.251   .     A
C45    C329    1.397   .     A
C45    H537    1.140   .     S
Cu46   O85     1.951   .     S
Cu46   O141    1.951   .     S
Cu46   Cu385   2.630   .     S
Cu46   O47     1.951   1_545 S
Cu46   O185    1.951   1_545 S
O47    C49     1.251   .     A
O47    Cu46    1.951   1_565 S
C48    C49     1.498   .     S
C48    C50     1.397   .     A
C48    C227    1.397   .     A
C49    O455    1.251   .     A
C50    C332    1.397   .     A
C50    H538    1.140   .     S
Cu51   O52     1.951   .     S
Cu51   O177    1.951   .     S
Cu51   Cu394   2.630   .     S
Cu51   O77     1.951   1_545 S
Cu51   O153    1.951   1_545 S
O52    C54     1.251   .     A
C53    C54     1.498   .     S
C53    C55     1.397   .     A
C53    C233    1.397   .     A
C54    O453    1.251   .     A
C55    C335    1.397   .     A
C55    H539    1.140   .     S
Cu56   O57     1.951   .     S
Cu56   O173    1.951   .     S
Cu56   Cu391   2.630   .     S
Cu56   O81     1.951   1_545 S
Cu56   O149    1.951   1_545 S
O57    C59     1.251   .     A
C58    C59     1.498   .     S
C58    C60     1.397   .     A
C58    C230    1.397   .     A
C59    O454    1.251   .     A
C60    C326    1.397   .     A
C60    H540    1.140   .     S
O61    C63     1.251   .     A
C62    C63     1.498   .     S
C62    C64     1.397   .     A
C62    C288    1.397   .     A
C63    O505    1.251   .     A
C64    C323    1.397   .     A
C64    H541    1.140   .     S
O65    C67     1.251   .     A
C66    C67     1.498   .     S
C66    C68     1.397   .     A
C66    C282    1.397   .     A
C67    O506    1.251   .     A
C68    C314    1.397   .     A
C68    H542    1.140   .     S
O69    C71     1.251   .     A
O69    Cu16    1.951   1_556 S
C70    C71     1.498   .     S
C70    C72     1.397   .     A
C70    C286    1.397   .     A
C71    O508    1.251   .     A
C72    C317    1.397   .     A
C72    H543    1.140   .     S
O73    C75     1.251   .     A
O73    Cu11    1.951   1_556 S
C74    C75     1.498   .     S
C74    C76     1.397   .     A
C74    C284    1.397   .     A
C75    O507    1.251   .     A
C76    C320    1.397   .     A
C76    H544    1.140   .     S
O77    C79     1.251   .     A
O77    Cu51    1.951   1_565 S
C78    C79     1.498   .     S
C78    C80     1.397   .     A
C78    C442    1.397   .     A
C79    O441    1.251   .     A
C80    C413    1.397   .     A
C80    H545    1.140   .     S
O81    C83     1.251   .     A
O81    Cu56    1.951   1_565 S
C82    C83     1.498   .     S
C82    C84     1.397   .     A
C82    C444    1.397   .     A
C83    O443    1.251   .     A
C84    C419    1.397   .     A
C84    H546    1.140   .     S
O85    C87     1.251   .     A
C86    C87     1.498   .     S
C86    C88     1.397   .     A
C86    C440    1.397   .     A
C87    O439    1.251   .     A
C88    C416    1.397   .     A
C88    H547    1.140   .     S
O89    C91     1.251   .     A
C90    C91     1.498   .     S
C90    C92     1.397   .     A
C90    C438    1.397   .     A
C91    O437    1.251   .     A
C92    C410    1.397   .     A
C92    H548    1.140   .     S
O93    C95     1.251   .     A
O93    Cu36    1.951   1_655 S
C94    C95     1.498   .     S
C94    C96     1.397   .     A
C94    C312    1.397   .     A
C95    O311    1.251   .     A
C96    C257    1.397   .     A
C96    H549    1.140   .     S
O97    C99     1.251   .     A
O97    Cu31    1.951   1_655 S
C98    C99     1.498   .     S
C98    C100    1.397   .     A
C98    C310    1.397   .     A
C99    O309    1.251   .     A
C100   C263    1.397   .     A
C100   H550    1.140   .     S
O101   C103    1.251   .     A
C102   C103    1.498   .     S
C102   C104    1.397   .     A
C102   C306    1.397   .     A
C103   O305    1.251   .     A
C104   C260    1.397   .     A
C104   H551    1.140   .     S
O105   C107    1.251   .     A
C106   C107    1.498   .     S
C106   C108    1.397   .     A
C106   C308    1.397   .     A
C107   O307    1.251   .     A
C108   C254    1.397   .     A
C108   H552    1.140   .     S
O109   C111    1.251   .     A
C110   C111    1.498   .     S
C110   C112    1.397   .     A
C110   C444    1.397   .     A
C111   O493    1.251   .     A
C112   C419    1.397   .     A
C112   H553    1.140   .     S
O113   C115    1.251   .     A
C114   C115    1.498   .     S
C114   C116    1.397   .     A
C114   C438    1.397   .     A
C115   O494    1.251   .     A
C116   C410    1.397   .     A
C116   H554    1.140   .     S
O117   C119    1.251   .     A
O117   Cu16    1.951   1_556 S
C118   C119    1.498   .     S
C118   C120    1.397   .     A
C118   C442    1.397   .     A
C119   O496    1.251   .     A
C120   C413    1.397   .     A
C120   H555    1.140   .     S
O121   C123    1.251   .     A
O121   Cu11    1.951   1_556 S
C122   C123    1.498   .     S
C122   C124    1.397   .     A
C122   C440    1.397   .     A
C123   O495    1.251   .     A
C124   C416    1.397   .     A
C124   H556    1.140   .     S
O125   C127    1.251   .     A
C126   C127    1.498   .     S
C126   C128    1.397   .     A
C126   C286    1.397   .     A
C127   O285    1.251   .     A
C128   C317    1.397   .     A
C128   H557    1.140   .     S
O129   C131    1.251   .     A
C130   C131    1.498   .     S
C130   C132    1.397   .     A
C130   C288    1.397   .     A
C131   O287    1.251   .     A
C132   C323    1.397   .     A
C132   H558    1.140   .     S
O133   C135    1.251   .     A
O133   Cu36    1.951   1_655 S
C134   C135    1.498   .     S
C134   C136    1.397   .     A
C134   C284    1.397   .     A
C135   O283    1.251   .     A
C136   C320    1.397   .     A
C136   H559    1.140   .     S
O137   C139    1.251   .     A
O137   Cu31    1.951   1_655 S
C138   C139    1.498   .     S
C138   C140    1.397   .     A
C138   C282    1.397   .     A
C139   O281    1.251   .     A
C140   C314    1.397   .     A
C140   H560    1.140   .     S
O141   C143    1.251   .     A
C142   C143    1.498   .     S
C142   C144    1.397   .     A
C142   C312    1.397   .     A
C143   O408    1.251   .     A
C144   C257    1.397   .     A
C144   H561    1.140   .     S
O145   C147    1.251   .     A
C146   C147    1.498   .     S
C146   C148    1.397   .     A
C146   C306    1.397   .     A
C147   O407    1.251   .     A
C148   C260    1.397   .     A
C148   H562    1.140   .     S
O149   C151    1.251   .     A
O149   Cu56    1.951   1_565 S
C150   C151    1.498   .     S
C150   C152    1.397   .     A
C150   C310    1.397   .     A
C151   O405    1.251   .     A
C152   C263    1.397   .     A
C152   H563    1.140   .     S
O153   C155    1.251   .     A
O153   Cu51    1.951   1_565 S
C154   C155    1.498   .     S
C154   C156    1.397   .     A
C154   C308    1.397   .     A
C155   O406    1.251   .     A
C156   C254    1.397   .     A
C156   H564    1.140   .     S
O157   C159    1.251   .     A
O157   Cu6     1.951   1_556 S
C158   C159    1.498   .     S
C158   C160    1.397   .     A
C158   C360    1.397   .     A
C159   O470    1.251   .     A
C160   C251    1.397   .     A
C160   H565    1.140   .     S
O161   C163    1.251   .     A
O161   Cu1     1.951   1_556 S
C162   C163    1.498   .     S
C162   C164    1.397   .     A
C162   C354    1.397   .     A
C163   O472    1.251   .     A
C164   C239    1.397   .     A
C164   H566    1.140   .     S
O165   C167    1.251   .     A
C166   C167    1.498   .     S
C166   C168    1.397   .     A
C166   C358    1.397   .     A
C167   O476    1.251   .     A
C168   C243    1.397   .     A
C168   H567    1.140   .     S
O169   C171    1.251   .     A
C170   C171    1.498   .     S
C170   C172    1.397   .     A
C170   C356    1.397   .     A
C171   O474    1.251   .     A
C172   C247    1.397   .     A
C172   H568    1.140   .     S
O173   C175    1.251   .     A
C174   C175    1.498   .     S
C174   C176    1.397   .     A
C174   C393    1.397   .     A
C175   O392    1.251   .     A
C176   C461    1.397   .     A
C176   H569    1.140   .     S
O177   C179    1.251   .     A
C178   C179    1.498   .     S
C178   C180    1.397   .     A
C178   C396    1.397   .     A
C179   O395    1.251   .     A
C180   C467    1.397   .     A
C180   H570    1.140   .     S
O181   C183    1.251   .     A
O181   Cu41    1.951   1_565 S
C182   C183    1.498   .     S
C182   C184    1.397   .     A
C182   C390    1.397   .     A
C183   O389    1.251   .     A
C184   C464    1.397   .     A
C184   H571    1.140   .     S
O185   C187    1.251   .     A
O185   Cu46    1.951   1_565 S
C186   C187    1.498   .     S
C186   C188    1.397   .     A
C186   C387    1.397   .     A
C187   O386    1.251   .     A
C188   C458    1.397   .     A
C188   H572    1.140   .     S
O189   C191    1.251   .     A
C190   C191    1.498   .     S
C190   C192    1.397   .     A
C190   C236    1.397   .     A
C191   O235    1.251   .     A
C192   C329    1.397   .     A
C192   H573    1.140   .     S
O193   C195    1.251   .     A
C194   C195    1.498   .     S
C194   C196    1.397   .     A
C194   C233    1.397   .     A
C195   O232    1.251   .     A
C196   C335    1.397   .     A
C196   H574    1.140   .     S
O197   C199    1.251   .     A
O197   Cu26    1.951   1_655 S
C198   C199    1.498   .     S
C198   C200    1.397   .     A
C198   C227    1.397   .     A
C199   O226    1.251   .     A
C200   C332    1.397   .     A
C200   H575    1.140   .     S
O201   C203    1.251   .     A
O201   Cu21    1.951   1_655 S
C202   C203    1.498   .     S
C202   C204    1.397   .     A
C202   C230    1.397   .     A
C203   O229    1.251   .     A
C204   C326    1.397   .     A
C204   H576    1.140   .     S
Cu205  O206    1.951   .     S
Cu205  O253    1.951   .     S
Cu205  O293    1.951   .     S
Cu205  O328    1.951   .     S
Cu205  Cu363   2.630   .     S
O206   C208    1.251   .     A
C207   C208    1.498   .     S
C207   C209    1.397   .     A
C207   C446    1.397   .     A
C208   O445    1.251   .     A
C209   C375    1.397   .     A
C209   H577    1.140   .     S
Cu210  O211    1.951   .     S
Cu210  O256    1.951   .     S
Cu210  O289    1.951   .     S
Cu210  O325    1.951   .     S
Cu210  Cu361   2.630   .     S
O211   C213    1.251   .     A
C212   C213    1.498   .     S
C212   C214    1.397   .     A
C212   C448    1.397   .     A
C213   O447    1.251   .     A
C214   C383    1.397   .     A
C214   H578    1.140   .     S
Cu215  O216    1.951   .     S
Cu215  O262    1.951   .     S
Cu215  O301    1.951   .     S
Cu215  O331    1.951   .     S
Cu215  Cu367   2.630   .     S
O216   C218    1.251   .     A
C217   C218    1.498   .     S
C217   C219    1.397   .     A
C217   C452    1.397   .     A
C218   O451    1.251   .     A
C219   C379    1.397   .     A
C219   H579    1.140   .     S
Cu220  O221    1.951   .     S
Cu220  O259    1.951   .     S
Cu220  O297    1.951   .     S
Cu220  O334    1.951   .     S
Cu220  Cu365   2.630   .     S
O221   C223    1.251   .     A
C222   C223    1.498   .     S
C222   C224    1.397   .     A
C222   C450    1.397   .     A
C223   O449    1.251   .     A
C224   C371    1.397   .     A
C224   H580    1.140   .     S
Cu225  O285    1.951   .     S
Cu225  O307    1.951   .     S
Cu225  O226    1.951   1_455 S
Cu225  O359    1.951   1_455 S
O226   Cu225   1.951   1_655 S
C227   H581    1.140   .     S
Cu228  O287    1.951   .     S
Cu228  O305    1.951   .     S
Cu228  O229    1.951   1_455 S
Cu228  O357    1.951   1_455 S
O229   Cu228   1.951   1_655 S
C230   H582    1.140   .     S
Cu231  O232    1.951   .     S
Cu231  O353    1.951   .     S
Cu231  O283    1.951   1_455 S
Cu231  O311    1.951   1_455 S
C233   H583    1.140   .     S
Cu234  O235    1.951   .     S
Cu234  O355    1.951   .     S
Cu234  O281    1.951   1_455 S
Cu234  O309    1.951   1_455 S
C236   H584    1.140   .     S
Cu237  O238    1.951   .     S
Cu237  O277    1.951   .     S
Cu237  O316    1.951   .     S
Cu237  O345    1.951   .     S
Cu237  Cu487   2.630   .     S
O238   C240    1.251   .     A
C239   C240    1.498   .     S
C240   O524    1.251   .     A
Cu241  O242    1.951   .     S
Cu241  O273    1.951   .     S
Cu241  O313    1.951   .     S
Cu241  O349    1.951   .     S
Cu241  Cu485   2.630   .     S
O242   C244    1.251   .     A
C243   C244    1.498   .     S
C244   O523    1.251   .     A
Cu245  O246    1.951   .     S
Cu245  O265    1.951   .     S
Cu245  O322    1.951   .     S
Cu245  O341    1.951   .     S
Cu245  Cu491   2.630   .     S
O246   C248    1.251   .     A
C247   C248    1.498   .     S
C248   O521    1.251   .     A
Cu249  O250    1.951   .     S
Cu249  O269    1.951   .     S
Cu249  O319    1.951   .     S
Cu249  O337    1.951   .     S
Cu249  Cu489   2.630   .     S
O250   C252    1.251   .     A
C251   C252    1.498   .     S
C252   O522    1.251   .     A
O253   C255    1.251   .     A
C254   C255    1.498   .     S
C255   O421    1.251   .     A
O256   C258    1.251   .     A
C257   C258    1.498   .     S
C258   O422    1.251   .     A
O259   C261    1.251   .     A
C260   C261    1.498   .     S
C261   O424    1.251   .     A
O262   C264    1.251   .     A
C263   C264    1.498   .     S
C264   O423    1.251   .     A
O265   C267    1.251   .     A
C266   C267    1.498   .     S
C266   C268    1.397   .     A
C266   C404    1.397   .     A
C267   O515    1.251   .     A
C268   C432    1.397   .     A
C268   H585    1.140   .     S
O269   C271    1.251   .     A
C270   C271    1.498   .     S
C270   C272    1.397   .     A
C270   C398    1.397   .     A
C271   O516    1.251   .     A
C272   C429    1.397   .     A
C272   H586    1.140   .     S
O273   C275    1.251   .     A
C274   C275    1.498   .     S
C274   C276    1.397   .     A
C274   C402    1.397   .     A
C275   O514    1.251   .     A
C276   C426    1.397   .     A
C276   H587    1.140   .     S
O277   C279    1.251   .     A
C278   C279    1.498   .     S
C278   C280    1.397   .     A
C278   C400    1.397   .     A
C279   O513    1.251   .     A
C280   C435    1.397   .     A
C280   H588    1.140   .     S
O281   Cu234   1.951   1_655 S
C282   H589    1.140   .     S
O283   Cu231   1.951   1_655 S
C284   H590    1.140   .     S
C286   H591    1.140   .     S
C288   H592    1.140   .     S
O289   C291    1.251   .     A
C290   C291    1.498   .     S
C290   C292    1.397   .     A
C290   C398    1.397   .     A
C291   O397    1.251   .     A
C292   C429    1.397   .     A
C292   H593    1.140   .     S
O293   C295    1.251   .     A
C294   C295    1.498   .     S
C294   C296    1.397   .     A
C294   C400    1.397   .     A
C295   O399    1.251   .     A
C296   C435    1.397   .     A
C296   H594    1.140   .     S
O297   C299    1.251   .     A
C298   C299    1.498   .     S
C298   C300    1.397   .     A
C298   C404    1.397   .     A
C299   O403    1.251   .     A
C300   C432    1.397   .     A
C300   H595    1.140   .     S
O301   C303    1.251   .     A
C302   C303    1.498   .     S
C302   C304    1.397   .     A
C302   C402    1.397   .     A
C303   O401    1.251   .     A
C304   C426    1.397   .     A
C304   H596    1.140   .     S
C306   H597    1.140   .     S
C308   H598    1.140   .     S
O309   Cu234   1.951   1_655 S
C310   H599    1.140   .     S
O311   Cu231   1.951   1_655 S
C312   H600    1.140   .     S
O313   C315    1.251   .     A
C314   C315    1.498   .     S
C315   O500    1.251   .     A
O316   C318    1.251   .     A
C317   C318    1.498   .     S
C318   O499    1.251   .     A
O319   C321    1.251   .     A
C320   C321    1.498   .     S
C321   O497    1.251   .     A
O322   C324    1.251   .     A
C323   C324    1.498   .     S
C324   O498    1.251   .     A
O325   C327    1.251   .     A
C326   C327    1.498   .     S
C327   O362    1.251   .     A
O328   C330    1.251   .     A
C329   C330    1.498   .     S
C330   O364    1.251   .     A
O331   C333    1.251   .     A
C332   C333    1.498   .     S
C333   O368    1.251   .     A
O334   C336    1.251   .     A
C335   C336    1.498   .     S
C336   O366    1.251   .     A
O337   C339    1.251   .     A
C338   C339    1.498   .     S
C338   C340    1.397   .     A
C338   C452    1.397   .     A
C339   O490    1.251   .     A
C340   C379    1.397   .     A
C340   H601    1.140   .     S
O341   C343    1.251   .     A
C342   C343    1.498   .     S
C342   C344    1.397   .     A
C342   C446    1.397   .     A
C343   O492    1.251   .     A
C344   C375    1.397   .     A
C344   H602    1.140   .     S
O345   C347    1.251   .     A
C346   C347    1.498   .     S
C346   C348    1.397   .     A
C346   C450    1.397   .     A
C347   O488    1.251   .     A
C348   C371    1.397   .     A
C348   H603    1.140   .     S
O349   C351    1.251   .     A
C350   C351    1.498   .     S
C350   C352    1.397   .     A
C350   C448    1.397   .     A
C351   O486    1.251   .     A
C352   C383    1.397   .     A
C352   H604    1.140   .     S
C354   H605    1.140   .     S
C356   H606    1.140   .     S
O357   Cu228   1.951   1_655 S
C358   H607    1.140   .     S
O359   Cu225   1.951   1_655 S
C360   H608    1.140   .     S
Cu361  O362    1.951   .     S
Cu361  O397    1.951   .     S
Cu361  O422    1.951   .     S
Cu361  O447    1.951   .     S
Cu363  O364    1.951   .     S
Cu363  O399    1.951   .     S
Cu363  O421    1.951   .     S
Cu363  O445    1.951   .     S
Cu365  O366    1.951   .     S
Cu365  O403    1.951   .     S
Cu365  O424    1.951   .     S
Cu365  O449    1.951   .     S
Cu367  O368    1.951   .     S
Cu367  O401    1.951   .     S
Cu367  O423    1.951   .     S
Cu367  O451    1.951   .     S
Cu369  O370    1.951   .     S
Cu369  O415    1.951   .     S
Cu369  O428    1.951   .     S
Cu369  O466    1.951   .     S
Cu369  Cu479   2.630   .     S
O370   C372    1.251   .     A
C371   C372    1.498   .     S
C372   O527    1.251   .     A
Cu373  O374    1.951   .     S
Cu373  O418    1.951   .     S
Cu373  O425    1.951   .     S
Cu373  O463    1.951   .     S
Cu373  Cu477   2.630   .     S
O374   C376    1.251   .     A
C375   C376    1.498   .     S
C376   O528    1.251   .     A
Cu377  O378    1.951   .     S
Cu377  O412    1.951   .     S
Cu377  O434    1.951   .     S
Cu377  O457    1.951   .     S
Cu377  Cu483   2.630   .     S
O378   C380    1.251   .     A
C379   C380    1.498   .     S
C380   O526    1.251   .     A
Cu381  O382    1.951   .     S
Cu381  O409    1.951   .     S
Cu381  O431    1.951   .     S
Cu381  O460    1.951   .     S
Cu381  Cu481   2.630   .     S
O382   C384    1.251   .     A
C383   C384    1.498   .     S
C384   O525    1.251   .     A
Cu385  O408    1.951   .     S
Cu385  O439    1.951   .     S
Cu385  O386    1.951   1_545 S
Cu385  O455    1.951   1_545 S
O386   Cu385   1.951   1_565 S
C387   H609    1.140   .     S
Cu388  O407    1.951   .     S
Cu388  O437    1.951   .     S
Cu388  O389    1.951   1_545 S
Cu388  O456    1.951   1_545 S
O389   Cu388   1.951   1_565 S
C390   H610    1.140   .     S
Cu391  O392    1.951   .     S
Cu391  O454    1.951   .     S
Cu391  O405    1.951   1_545 S
Cu391  O443    1.951   1_545 S
C393   H611    1.140   .     S
Cu394  O395    1.951   .     S
Cu394  O453    1.951   .     S
Cu394  O406    1.951   1_545 S
Cu394  O441    1.951   1_545 S
C396   H612    1.140   .     S
C398   H613    1.140   .     S
C400   H614    1.140   .     S
C402   H615    1.140   .     S
C404   H616    1.140   .     S
O405   Cu391   1.951   1_565 S
O406   Cu394   1.951   1_565 S
O409   C411    1.251   .     A
C410   C411    1.498   .     S
C411   O512    1.251   .     A
O412   C414    1.251   .     A
C413   C414    1.498   .     S
C414   O511    1.251   .     A
O415   C417    1.251   .     A
C416   C417    1.498   .     S
C417   O509    1.251   .     A
O418   C420    1.251   .     A
C419   C420    1.498   .     S
C420   O510    1.251   .     A
O425   C427    1.251   .     A
C426   C427    1.498   .     S
C427   O503    1.251   .     A
O428   C430    1.251   .     A
C429   C430    1.498   .     S
C430   O504    1.251   .     A
O431   C433    1.251   .     A
C432   C433    1.498   .     S
C433   O502    1.251   .     A
O434   C436    1.251   .     A
C435   C436    1.498   .     S
C436   O501    1.251   .     A
C438   H617    1.140   .     S
C440   H618    1.140   .     S
O441   Cu394   1.951   1_565 S
C442   H619    1.140   .     S
O443   Cu391   1.951   1_565 S
C444   H620    1.140   .     S
C446   H621    1.140   .     S
C448   H622    1.140   .     S
C450   H623    1.140   .     S
C452   H624    1.140   .     S
O455   Cu385   1.951   1_565 S
O456   Cu388   1.951   1_565 S
O457   C459    1.251   .     A
C458   C459    1.498   .     S
C459   O484    1.251   .     A
O460   C462    1.251   .     A
C461   C462    1.498   .     S
C462   O482    1.251   .     A
O463   C465    1.251   .     A
C464   C465    1.498   .     S
C465   O478    1.251   .     A
O466   C468    1.251   .     A
C467   C468    1.498   .     S
C468   O480    1.251   .     A
Cu469  O493    1.951   .     S
Cu469  O506    1.951   .     S
Cu469  O470    1.951   1_554 S
Cu469  O518    1.951   1_554 S
O470   Cu469   1.951   1_556 S
Cu471  O494    1.951   .     S
Cu471  O505    1.951   .     S
Cu471  O472    1.951   1_554 S
Cu471  O517    1.951   1_554 S
O472   Cu471   1.951   1_556 S
Cu473  O474    1.951   .     S
Cu473  O519    1.951   .     S
Cu473  O496    1.951   1_554 S
Cu473  O508    1.951   1_554 S
Cu475  O476    1.951   .     S
Cu475  O520    1.951   .     S
Cu475  O495    1.951   1_554 S
Cu475  O507    1.951   1_554 S
Cu477  O478    1.951   .     S
Cu477  O503    1.951   .     S
Cu477  O510    1.951   .     S
Cu477  O528    1.951   .     S
Cu479  O480    1.951   .     S
Cu479  O504    1.951   .     S
Cu479  O509    1.951   .     S
Cu479  O527    1.951   .     S
Cu481  O482    1.951   .     S
Cu481  O502    1.951   .     S
Cu481  O512    1.951   .     S
Cu481  O525    1.951   .     S
Cu483  O484    1.951   .     S
Cu483  O501    1.951   .     S
Cu483  O511    1.951   .     S
Cu483  O526    1.951   .     S
Cu485  O486    1.951   .     S
Cu485  O500    1.951   .     S
Cu485  O514    1.951   .     S
Cu485  O523    1.951   .     S
Cu487  O488    1.951   .     S
Cu487  O499    1.951   .     S
Cu487  O513    1.951   .     S
Cu487  O524    1.951   .     S
Cu489  O490    1.951   .     S
Cu489  O497    1.951   .     S
Cu489  O516    1.951   .     S
Cu489  O522    1.951   .     S
Cu491  O492    1.951   .     S
Cu491  O498    1.951   .     S
Cu491  O515    1.951   .     S
Cu491  O521    1.951   .     S
O495   Cu475   1.951   1_556 S
O496   Cu473   1.951   1_556 S
O507   Cu475   1.951   1_556 S
O508   Cu473   1.951   1_556 S
O517   Cu471   1.951   1_556 S
O518   Cu469   1.951   1_556 S
