data_functionalizedCrystal
_audit_creation_method	'EQeq! by Chris Wilmer'
_symmetry_space_group_name_H-M	'P1'
_symmetry_Int_Tables_number	1
_symmetry_cell_setting	triclinic
loop_
_symmetry_equiv_pos_as_xyz
  x,y,z
_cell_length_a	25.832000
_cell_length_b	25.832000
_cell_length_c	25.832000
_cell_angle_alpha	90.000000
_cell_angle_beta	90.000000
_cell_angle_gamma	90.000000
loop_
_atom_site_label
_atom_site_type_symbol
_atom_site_fract_x
_atom_site_fract_y
_atom_site_fract_z
_atom_site_charge
Zn	Zn	0.293400	0.206600	0.206600	1.211000
O 	O 	0.250000	0.250000	0.250000	-0.968000
O 	O 	0.281900	0.218100	0.134000	-0.483000
C 	C 	0.250000	0.250000	0.111300	0.320000
C 	C 	0.250000	0.250000	0.053800	-0.065000
C 	C 	0.282900	0.217100	0.026900	-0.024000
H 	H 	0.304900	0.195100	0.044800	0.053000
Zn	Zn	0.706600	0.793400	0.206600	1.211000
O 	O 	0.750000	0.750000	0.250000	-0.968000
O 	O 	0.718100	0.781900	0.134000	-0.483000
C 	C 	0.750000	0.750000	0.111300	0.320000
C 	C 	0.750000	0.750000	0.053800	-0.065000
C 	C 	0.717100	0.782900	0.026900	-0.024000
H 	H 	0.695100	0.804900	0.044800	0.053000
Zn	Zn	0.706600	0.206600	0.793400	1.211000
O 	O 	0.750000	0.250000	0.750000	-0.968000
O 	O 	0.718100	0.218100	0.866000	-0.483000
C 	C 	0.750000	0.250000	0.888700	0.320000
C 	C 	0.750000	0.250000	0.946200	-0.065000
C 	C 	0.717100	0.217100	0.973100	-0.024000
H 	H 	0.695100	0.195100	0.955200	0.053000
Zn	Zn	0.293400	0.793400	0.793400	1.211000
O 	O 	0.250000	0.750000	0.750000	-0.968000
O 	O 	0.281900	0.781900	0.866000	-0.483000
C 	C 	0.250000	0.750000	0.888700	0.320000
C 	C 	0.250000	0.750000	0.946200	-0.065000
C 	C 	0.282900	0.782900	0.973100	-0.024000
H 	H 	0.304900	0.804900	0.955200	0.053000
Zn	Zn	0.206600	0.293400	0.206600	1.211000
O 	O 	0.134000	0.281900	0.218100	-0.483000
C 	C 	0.111300	0.250000	0.250000	0.320000
C 	C 	0.053800	0.250000	0.250000	-0.065000
C 	C 	0.026900	0.282900	0.217100	-0.024000
H 	H 	0.044800	0.304900	0.195100	0.053000
Zn	Zn	0.206600	0.706600	0.793400	1.211000
O 	O 	0.134000	0.718100	0.781900	-0.483000
C 	C 	0.111300	0.750000	0.750000	0.320000
C 	C 	0.053800	0.750000	0.750000	-0.065000
C 	C 	0.026900	0.717100	0.782900	-0.024000
H 	H 	0.044800	0.695100	0.804900	0.053000
Zn	Zn	0.793400	0.706600	0.206600	1.211000
O 	O 	0.866000	0.718100	0.218100	-0.483000
C 	C 	0.888700	0.750000	0.250000	0.320000
C 	C 	0.946200	0.750000	0.250000	-0.065000
C 	C 	0.973100	0.717100	0.217100	-0.024000
H 	H 	0.955200	0.695100	0.195100	0.053000
Zn	Zn	0.793400	0.293400	0.793400	1.211000
O 	O 	0.866000	0.281900	0.781900	-0.483000
C 	C 	0.888700	0.250000	0.750000	0.320000
C 	C 	0.946200	0.250000	0.750000	-0.065000
C 	C 	0.973100	0.282900	0.782900	-0.024000
H 	H 	0.955200	0.304900	0.804900	0.053000
Zn	Zn	0.206600	0.206600	0.293400	1.211000
O 	O 	0.218100	0.134000	0.281900	-0.483000
C 	C 	0.250000	0.111300	0.250000	0.320000
C 	C 	0.250000	0.053800	0.250000	-0.065000
C 	C 	0.217100	0.026900	0.282900	-0.024000
H 	H 	0.195100	0.044800	0.304900	0.053000
Zn	Zn	0.793400	0.206600	0.706600	1.211000
O 	O 	0.781900	0.134000	0.718100	-0.483000
C 	C 	0.750000	0.111300	0.750000	0.320000
C 	C 	0.750000	0.053800	0.750000	-0.065000
C 	C 	0.782900	0.026900	0.717100	-0.024000
H 	H 	0.804900	0.044800	0.695100	0.053000
Zn	Zn	0.206600	0.793400	0.706600	1.211000
O 	O 	0.218100	0.866000	0.718100	-0.483000
C 	C 	0.250000	0.888700	0.750000	0.320000
C 	C 	0.250000	0.946200	0.750000	-0.065000
C 	C 	0.217100	0.973100	0.717100	-0.024000
H 	H 	0.195100	0.955200	0.695100	0.053000
Zn	Zn	0.793400	0.793400	0.293400	1.211000
O 	O 	0.781900	0.866000	0.281900	-0.483000
C 	C 	0.750000	0.888700	0.250000	0.320000
C 	C 	0.750000	0.946200	0.250000	-0.065000
C 	C 	0.782900	0.973100	0.282900	-0.024000
H 	H 	0.804900	0.955200	0.304900	0.053000
Zn	Zn	0.206600	0.293400	0.793400	1.211000
O 	O 	0.250000	0.250000	0.750000	-0.968000
O 	O 	0.218100	0.281900	0.866000	-0.483000
C 	C 	0.250000	0.250000	0.888700	0.320000
C 	C 	0.250000	0.250000	0.946200	-0.065000
C 	C 	0.217100	0.282900	0.973100	-0.024000
H 	H 	0.195100	0.304900	0.955200	0.053000
Zn	Zn	0.793400	0.706600	0.793400	1.211000
O 	O 	0.750000	0.750000	0.750000	-0.968000
O 	O 	0.781900	0.718100	0.866000	-0.483000
C 	C 	0.750000	0.750000	0.888700	0.320000
C 	C 	0.750000	0.750000	0.946200	-0.065000
C 	C 	0.782900	0.717100	0.973100	-0.023000
H 	H 	0.804900	0.695100	0.955200	0.054000
Zn	Zn	0.206600	0.706600	0.206600	1.212000
O 	O 	0.250000	0.750000	0.250000	-0.967000
O 	O 	0.218100	0.718100	0.134000	-0.482000
C 	C 	0.250000	0.750000	0.111300	0.321000
C 	C 	0.250000	0.750000	0.053800	-0.064000
C 	C 	0.217100	0.717100	0.026900	-0.023000
H 	H 	0.195100	0.695100	0.044800	0.054000
Zn	Zn	0.793400	0.293400	0.206600	1.212000
O 	O 	0.750000	0.250000	0.250000	-0.967000
O 	O 	0.781900	0.281900	0.134000	-0.482000
C 	C 	0.750000	0.250000	0.111300	0.321000
C 	C 	0.750000	0.250000	0.053800	-0.064000
C 	C 	0.782900	0.282900	0.026900	-0.023000
H 	H 	0.804900	0.304900	0.044800	0.054000
Zn	Zn	0.293400	0.206600	0.793400	1.212000
O 	O 	0.281900	0.134000	0.781900	-0.482000
C 	C 	0.250000	0.111300	0.750000	0.321000
C 	C 	0.250000	0.053800	0.750000	-0.064000
C 	C 	0.282900	0.026900	0.782900	-0.023000
H 	H 	0.304900	0.044800	0.804900	0.054000
Zn	Zn	0.706600	0.206600	0.206600	1.212000
O 	O 	0.718100	0.134000	0.218100	-0.482000
C 	C 	0.750000	0.111300	0.250000	0.321000
C 	C 	0.750000	0.053800	0.250000	-0.064000
C 	C 	0.717100	0.026900	0.217100	-0.023000
H 	H 	0.695100	0.044800	0.195100	0.054000
Zn	Zn	0.706600	0.793400	0.793400	1.212000
O 	O 	0.718100	0.866000	0.781900	-0.482000
C 	C 	0.750000	0.888700	0.750000	0.321000
C 	C 	0.750000	0.946200	0.750000	-0.064000
C 	C 	0.717100	0.973100	0.782900	-0.023000
H 	H 	0.695100	0.955200	0.804900	0.054000
Zn	Zn	0.293400	0.793400	0.206600	1.212000
O 	O 	0.281900	0.866000	0.218100	-0.482000
C 	C 	0.250000	0.888700	0.250000	0.321000
C 	C 	0.250000	0.946200	0.250000	-0.064000
C 	C 	0.282900	0.973100	0.217100	-0.023000
H 	H 	0.304900	0.955200	0.195100	0.054000
Zn	Zn	0.206600	0.206600	0.706600	1.212000
O 	O 	0.134000	0.218100	0.718100	-0.482000
C 	C 	0.111300	0.250000	0.750000	0.321000
C 	C 	0.053800	0.250000	0.750000	-0.064000
C 	C 	0.026900	0.217100	0.717100	-0.023000
H 	H 	0.044800	0.195100	0.695100	0.054000
Zn	Zn	0.206600	0.793400	0.293400	1.212000
O 	O 	0.134000	0.781900	0.281900	-0.482000
C 	C 	0.111300	0.750000	0.250000	0.321000
C 	C 	0.053800	0.750000	0.250000	-0.064000
C 	C 	0.026900	0.782900	0.282900	-0.023000
H 	H 	0.044800	0.804900	0.304900	0.054000
Zn	Zn	0.793400	0.206600	0.293400	1.212000
O 	O 	0.866000	0.218100	0.281900	-0.482000
C 	C 	0.888700	0.250000	0.250000	0.321000
C 	C 	0.946200	0.250000	0.250000	-0.064000
C 	C 	0.973100	0.217100	0.282900	-0.023000
H 	H 	0.955200	0.195100	0.304900	0.054000
Zn	Zn	0.793400	0.793400	0.706600	1.212000
O 	O 	0.866000	0.781900	0.718100	-0.482000
C 	C 	0.888700	0.750000	0.750000	0.321000
C 	C 	0.946200	0.750000	0.750000	-0.064000
C 	C 	0.973100	0.782900	0.717100	-0.023000
H 	H 	0.955200	0.804900	0.695100	0.054000
O 	O 	0.718100	0.781900	0.866000	-0.482000
C 	C 	0.717100	0.782900	0.973100	-0.023000
H 	H 	0.695100	0.804900	0.955200	0.054000
O 	O 	0.281900	0.218100	0.866000	-0.482000
C 	C 	0.282900	0.217100	0.973100	-0.023000
H 	H 	0.304900	0.195100	0.955200	0.054000
O 	O 	0.281900	0.781900	0.134000	-0.482000
C 	C 	0.282900	0.782900	0.026900	-0.023000
H 	H 	0.304900	0.804900	0.044800	0.054000
O 	O 	0.718100	0.218100	0.134000	-0.482000
C 	C 	0.717100	0.217100	0.026900	-0.023000
H 	H 	0.695100	0.195100	0.044800	0.054000
O 	O 	0.866000	0.718100	0.781900	-0.482000
C 	C 	0.973100	0.717100	0.782900	-0.023000
H 	H 	0.955200	0.695100	0.804900	0.054000
O 	O 	0.866000	0.281900	0.218100	-0.482000
C 	C 	0.973100	0.282900	0.217100	-0.023000
H 	H 	0.955200	0.304900	0.195100	0.054000
O 	O 	0.134000	0.281900	0.781900	-0.482000
C 	C 	0.026900	0.282900	0.782900	-0.023000
H 	H 	0.044800	0.304900	0.804900	0.054000
O 	O 	0.134000	0.718100	0.218100	-0.482000
C 	C 	0.026900	0.717100	0.217100	-0.023000
H 	H 	0.044800	0.695100	0.195100	0.054000
O 	O 	0.781900	0.866000	0.718100	-0.482000
C 	C 	0.782900	0.973100	0.717100	-0.023000
H 	H 	0.804900	0.955200	0.695100	0.054000
O 	O 	0.218100	0.866000	0.281900	-0.482000
C 	C 	0.217100	0.973100	0.282900	-0.023000
H 	H 	0.195100	0.955200	0.304900	0.054000
O 	O 	0.781900	0.134000	0.281900	-0.482000
C 	C 	0.782900	0.026900	0.282900	-0.023000
H 	H 	0.804900	0.044800	0.304900	0.054000
O 	O 	0.218100	0.134000	0.718100	-0.482000
C 	C 	0.217100	0.026900	0.717100	-0.023000
H 	H 	0.195100	0.044800	0.695100	0.054000
O 	O 	0.781900	0.718100	0.134000	-0.482000
C 	C 	0.782900	0.717100	0.026900	-0.023000
H 	H 	0.804900	0.695100	0.044800	0.054000
O 	O 	0.218100	0.281900	0.134000	-0.482000
C 	C 	0.217100	0.282900	0.026900	-0.023000
H 	H 	0.195100	0.304900	0.044800	0.054000
O 	O 	0.781900	0.281900	0.866000	-0.482000
C 	C 	0.782900	0.282900	0.973100	-0.023000
H 	H 	0.804900	0.304900	0.955200	0.054000
O 	O 	0.218100	0.718100	0.866000	-0.482000
C 	C 	0.217100	0.717100	0.973100	-0.023000
H 	H 	0.195100	0.695100	0.955200	0.054000
O 	O 	0.718100	0.866000	0.218100	-0.482000
C 	C 	0.717100	0.973100	0.217100	-0.023000
H 	H 	0.695100	0.955200	0.195100	0.054000
O 	O 	0.281900	0.866000	0.781900	-0.482000
C 	C 	0.282900	0.973100	0.782900	-0.023000
H 	H 	0.304900	0.955200	0.804900	0.054000
O 	O 	0.281900	0.134000	0.218100	-0.482000
C 	C 	0.282900	0.026900	0.217100	-0.023000
H 	H 	0.304900	0.044800	0.195100	0.054000
O 	O 	0.718100	0.134000	0.781900	-0.482000
C 	C 	0.717100	0.026900	0.782900	-0.023000
H 	H 	0.695100	0.044800	0.804900	0.054000
O 	O 	0.866000	0.781900	0.281900	-0.482000
C 	C 	0.973100	0.782900	0.282900	-0.023000
H 	H 	0.955200	0.804900	0.304900	0.054000
O 	O 	0.866000	0.218100	0.718100	-0.482000
C 	C 	0.973100	0.217100	0.717100	-0.023000
H 	H 	0.955200	0.195100	0.695100	0.054000
O 	O 	0.134000	0.781900	0.718100	-0.482000
C 	C 	0.026900	0.782900	0.717100	-0.023000
H 	H 	0.044800	0.804900	0.695100	0.054000
O 	O 	0.134000	0.218100	0.281900	-0.482000
C 	C 	0.026900	0.217100	0.282900	-0.023000
H 	H 	0.044800	0.195100	0.304900	0.054000
Zn	Zn	0.293400	0.706600	0.706600	1.212000
O 	O 	0.281900	0.718100	0.634000	-0.482000
C 	C 	0.250000	0.750000	0.611300	0.321000
C 	C 	0.250000	0.750000	0.553800	-0.064000
C 	C 	0.282900	0.717100	0.526900	-0.023000
H 	H 	0.304900	0.695100	0.544800	0.054000
Zn	Zn	0.706600	0.293400	0.706600	1.212000
O 	O 	0.718100	0.281900	0.634000	-0.482000
C 	C 	0.750000	0.250000	0.611300	0.321000
C 	C 	0.750000	0.250000	0.553800	-0.064000
C 	C 	0.717100	0.282900	0.526900	-0.023000
H 	H 	0.695100	0.304900	0.544800	0.054000
Zn	Zn	0.706600	0.706600	0.293400	1.212000
O 	O 	0.718100	0.718100	0.366000	-0.482000
C 	C 	0.750000	0.750000	0.388700	0.321000
C 	C 	0.750000	0.750000	0.446200	-0.064000
C 	C 	0.717100	0.717100	0.473100	-0.023000
H 	H 	0.695100	0.695100	0.455200	0.054000
Zn	Zn	0.293400	0.293400	0.293400	1.212000
O 	O 	0.281900	0.281900	0.366000	-0.482000
C 	C 	0.250000	0.250000	0.388700	0.321000
C 	C 	0.250000	0.250000	0.446200	-0.064000
C 	C 	0.282900	0.282900	0.473100	-0.023000
H 	H 	0.304900	0.304900	0.455200	0.054000
O 	O 	0.218100	0.634000	0.781900	-0.482000
C 	C 	0.250000	0.611300	0.750000	0.321000
C 	C 	0.250000	0.553800	0.750000	-0.064000
C 	C 	0.217100	0.526900	0.782900	-0.023000
H 	H 	0.195100	0.544800	0.804900	0.054000
O 	O 	0.781900	0.634000	0.218100	-0.482000
C 	C 	0.750000	0.611300	0.250000	0.321000
C 	C 	0.750000	0.553800	0.250000	-0.064000
C 	C 	0.782900	0.526900	0.217100	-0.023000
H 	H 	0.804900	0.544800	0.195100	0.054000
O 	O 	0.218100	0.366000	0.218100	-0.482000
C 	C 	0.250000	0.388700	0.250000	0.321000
C 	C 	0.250000	0.446200	0.250000	-0.064000
C 	C 	0.217100	0.473100	0.217100	-0.023000
H 	H 	0.195100	0.455200	0.195100	0.054000
O 	O 	0.781900	0.366000	0.781900	-0.482000
C 	C 	0.750000	0.388700	0.750000	0.321000
C 	C 	0.750000	0.446200	0.750000	-0.064000
C 	C 	0.782900	0.473100	0.782900	-0.023000
H 	H 	0.804900	0.455200	0.804900	0.054000
O 	O 	0.218100	0.781900	0.366000	-0.482000
C 	C 	0.250000	0.750000	0.388700	0.321000
C 	C 	0.250000	0.750000	0.446200	-0.064000
C 	C 	0.217100	0.782900	0.473100	-0.023000
H 	H 	0.195100	0.804900	0.455200	0.054000
O 	O 	0.781900	0.218100	0.366000	-0.482000
C 	C 	0.750000	0.250000	0.388700	0.321000
C 	C 	0.750000	0.250000	0.446200	-0.064000
C 	C 	0.782900	0.217100	0.473100	-0.023000
H 	H 	0.804900	0.195100	0.455200	0.054000
O 	O 	0.218100	0.218100	0.634000	-0.482000
C 	C 	0.250000	0.250000	0.611300	0.321000
C 	C 	0.250000	0.250000	0.553800	-0.064000
C 	C 	0.217100	0.217100	0.526900	-0.023000
H 	H 	0.195100	0.195100	0.544800	0.054000
O 	O 	0.781900	0.781900	0.634000	-0.482000
C 	C 	0.750000	0.750000	0.611300	0.321000
C 	C 	0.750000	0.750000	0.553800	-0.064000
C 	C 	0.782900	0.782900	0.526900	-0.023000
H 	H 	0.804900	0.804900	0.544800	0.054000
Zn	Zn	0.293400	0.706600	0.293400	1.212000
O 	O 	0.281900	0.634000	0.281900	-0.482000
C 	C 	0.250000	0.611300	0.250000	0.321000
C 	C 	0.250000	0.553800	0.250000	-0.064000
C 	C 	0.282900	0.526900	0.282900	-0.023000
H 	H 	0.304900	0.544800	0.304900	0.054000
Zn	Zn	0.706600	0.706600	0.706600	1.212000
O 	O 	0.718100	0.634000	0.718100	-0.482000
C 	C 	0.750000	0.611300	0.750000	0.321000
C 	C 	0.750000	0.553800	0.750000	-0.064000
C 	C 	0.717100	0.526900	0.717100	-0.023000
H 	H 	0.695100	0.544800	0.695100	0.054000
Zn	Zn	0.706600	0.293400	0.293400	1.212000
O 	O 	0.718100	0.366000	0.281900	-0.482000
C 	C 	0.750000	0.388700	0.250000	0.321000
C 	C 	0.750000	0.446200	0.250000	-0.064000
C 	C 	0.717100	0.473100	0.282900	-0.023000
H 	H 	0.695100	0.455200	0.304900	0.054000
Zn	Zn	0.293400	0.293400	0.706600	1.212000
O 	O 	0.281900	0.366000	0.718100	-0.482000
C 	C 	0.250000	0.388700	0.750000	0.321000
C 	C 	0.250000	0.446200	0.750000	-0.064000
C 	C 	0.282900	0.473100	0.717100	-0.023000
H 	H 	0.304900	0.455200	0.695100	0.054000
O 	O 	0.718100	0.281900	0.366000	-0.482000
C 	C 	0.717100	0.282900	0.473100	-0.023000
H 	H 	0.695100	0.304900	0.455200	0.054000
O 	O 	0.281900	0.718100	0.366000	-0.482000
C 	C 	0.282900	0.717100	0.473100	-0.023000
H 	H 	0.304900	0.695100	0.455200	0.054000
O 	O 	0.281900	0.281900	0.634000	-0.482000
C 	C 	0.282900	0.282900	0.526900	-0.023000
H 	H 	0.304900	0.304900	0.544800	0.054000
O 	O 	0.718100	0.718100	0.634000	-0.482000
C 	C 	0.717100	0.717100	0.526900	-0.023000
H 	H 	0.695100	0.695100	0.544800	0.054000
O 	O 	0.781900	0.366000	0.218100	-0.482000
C 	C 	0.782900	0.473100	0.217100	-0.023000
H 	H 	0.804900	0.455200	0.195100	0.054000
O 	O 	0.218100	0.366000	0.781900	-0.482000
C 	C 	0.217100	0.473100	0.782900	-0.023000
H 	H 	0.195100	0.455200	0.804900	0.054000
O 	O 	0.781900	0.634000	0.781900	-0.482000
C 	C 	0.782900	0.526900	0.782900	-0.023000
H 	H 	0.804900	0.544800	0.804900	0.054000
O 	O 	0.218100	0.634000	0.218100	-0.482000
C 	C 	0.217100	0.526900	0.217100	-0.023000
H 	H 	0.195100	0.544800	0.195100	0.054000
O 	O 	0.781900	0.218100	0.634000	-0.482000
C 	C 	0.782900	0.217100	0.526900	-0.023000
H 	H 	0.804900	0.195100	0.544800	0.054000
O 	O 	0.218100	0.781900	0.634000	-0.482000
C 	C 	0.217100	0.782900	0.526900	-0.023000
H 	H 	0.195100	0.804900	0.544800	0.054000
O 	O 	0.781900	0.781900	0.366000	-0.482000
C 	C 	0.782900	0.782900	0.473100	-0.023000
H 	H 	0.804900	0.804900	0.455200	0.054000
O 	O 	0.218100	0.218100	0.366000	-0.482000
C 	C 	0.217100	0.217100	0.473100	-0.023000
H 	H 	0.195100	0.195100	0.455200	0.054000
O 	O 	0.718100	0.366000	0.718100	-0.482000
C 	C 	0.717100	0.473100	0.717100	-0.023000
H 	H 	0.695100	0.455200	0.695100	0.054000
O 	O 	0.281900	0.366000	0.281900	-0.482000
C 	C 	0.282900	0.473100	0.282900	-0.023000
H 	H 	0.304900	0.455200	0.304900	0.054000
O 	O 	0.281900	0.634000	0.718100	-0.482000
C 	C 	0.282900	0.526900	0.717100	-0.023000
H 	H 	0.304900	0.544800	0.695100	0.054000
O 	O 	0.718100	0.634000	0.281900	-0.482000
C 	C 	0.717100	0.526900	0.282900	-0.023000
H 	H 	0.695100	0.544800	0.304900	0.054000
O 	O 	0.634000	0.281900	0.718100	-0.482000
C 	C 	0.611300	0.250000	0.750000	0.321000
C 	C 	0.553800	0.250000	0.750000	-0.064000
C 	C 	0.526900	0.282900	0.717100	-0.023000
H 	H 	0.544800	0.304900	0.695100	0.054000
O 	O 	0.634000	0.718100	0.281900	-0.482000
C 	C 	0.611300	0.750000	0.250000	0.321000
C 	C 	0.553800	0.750000	0.250000	-0.064000
C 	C 	0.526900	0.717100	0.282900	-0.023000
H 	H 	0.544800	0.695100	0.304900	0.054000
O 	O 	0.366000	0.718100	0.718100	-0.482000
C 	C 	0.388700	0.750000	0.750000	0.321000
C 	C 	0.446200	0.750000	0.750000	-0.064000
C 	C 	0.473100	0.717100	0.717100	-0.023000
H 	H 	0.455200	0.695100	0.695100	0.054000
O 	O 	0.366000	0.281900	0.281900	-0.482000
C 	C 	0.388700	0.250000	0.250000	0.321000
C 	C 	0.446200	0.250000	0.250000	-0.064000
C 	C 	0.473100	0.282900	0.282900	-0.023000
H 	H 	0.455200	0.304900	0.304900	0.054000
O 	O 	0.634000	0.218100	0.218100	-0.482000
C 	C 	0.611300	0.250000	0.250000	0.321000
C 	C 	0.553800	0.250000	0.250000	-0.064000
C 	C 	0.526900	0.217100	0.217100	-0.023000
H 	H 	0.544800	0.195100	0.195100	0.054000
O 	O 	0.634000	0.781900	0.781900	-0.482000
C 	C 	0.611300	0.750000	0.750000	0.321000
C 	C 	0.553800	0.750000	0.750000	-0.064000
C 	C 	0.526900	0.782900	0.782900	-0.023000
H 	H 	0.544800	0.804900	0.804900	0.054000
O 	O 	0.366000	0.218100	0.781900	-0.482000
C 	C 	0.388700	0.250000	0.750000	0.321000
C 	C 	0.446200	0.250000	0.750000	-0.064000
C 	C 	0.473100	0.217100	0.782900	-0.023000
H 	H 	0.455200	0.195100	0.804900	0.054000
O 	O 	0.366000	0.781900	0.218100	-0.482000
C 	C 	0.388700	0.750000	0.250000	0.321000
C 	C 	0.446200	0.750000	0.250000	-0.064000
C 	C 	0.473100	0.782900	0.217100	-0.023000
H 	H 	0.455200	0.804900	0.195100	0.054000
O 	O 	0.366000	0.718100	0.281900	-0.482000
C 	C 	0.473100	0.717100	0.282900	-0.023000
H 	H 	0.455200	0.695100	0.304900	0.054000
O 	O 	0.366000	0.281900	0.718100	-0.482000
C 	C 	0.473100	0.282900	0.717100	-0.023000
H 	H 	0.455200	0.304900	0.695100	0.054000
O 	O 	0.634000	0.281900	0.281900	-0.482000
C 	C 	0.526900	0.282900	0.282900	-0.023000
H 	H 	0.544800	0.304900	0.304900	0.054000
O 	O 	0.634000	0.718100	0.718100	-0.482000
C 	C 	0.526900	0.717100	0.717100	-0.023000
H 	H 	0.544800	0.695100	0.695100	0.054000
O 	O 	0.366000	0.781900	0.781900	-0.482000
C 	C 	0.473100	0.782900	0.782900	-0.023000
H 	H 	0.455200	0.804900	0.804900	0.054000
O 	O 	0.366000	0.218100	0.218100	-0.482000
C 	C 	0.473100	0.217100	0.217100	-0.023000
H 	H 	0.455200	0.195100	0.195100	0.054000
O 	O 	0.634000	0.781900	0.218100	-0.482000
C 	C 	0.526900	0.782900	0.217100	-0.023000
H 	H 	0.544800	0.804900	0.195100	0.054000
O 	O 	0.634000	0.218100	0.781900	-0.482000
C 	C 	0.526900	0.217100	0.782900	-0.023000
H 	H 	0.544800	0.195100	0.804900	0.054000
_end
