data_functionalizedCrystal
_audit_creation_method	'EQeq! by Chris Wilmer'
_symmetry_space_group_name_H-M	'P1'
_symmetry_Int_Tables_number	1
_symmetry_cell_setting	triclinic
loop_
_symmetry_equiv_pos_as_xyz
  x,y,z
_cell_length_a	14.84
_cell_length_b	14.907
_cell_length_c	22.118
_cell_angle_alpha	88.767
_cell_angle_beta	87.169
_cell_angle_gamma	75.796
loop_
_atom_site_label
_atom_site_type_symbol
_atom_site_fract_x
_atom_site_fract_y
_atom_site_fract_z
_atom_site_charge
Co	Co	0.2773	0.7525	0.9804	1.132
Co	Co	0.7227	0.2475	0.0196	1.133
Co	Co	0.5	0	0.5	1.164
Co	Co	9.74919e-18	0.5	0.5	1.153
As	As	0.2177	0.1222	0.7742	0.604
As	As	0.2509	0.3714	0.7751	0.609
As	As	0.7823	0.8778	0.2258	0.605
As	As	0.7491	0.6286	0.2249	0.609
H 	H 	0.2687	0.6763	0.1227	-0.028
H 	H 	0.4409	0.5561	0.9945	0.001
H 	H 	0.4111	0.4916	0.1957	0.054
H 	H 	0.3281	0.4551	0.1726	0.047
H 	H 	0.4117	0.6912	0.8564	0.023
H 	H 	0.4435	0.86	0.9782	-0.04
H 	H 	0.6045	0.8832	0.8647	0.043
H 	H 	0.5816	0.9125	0.9324	0.028
H 	H 	0.6859	0.775	0.9641	0.038
H 	H 	0.7375	0.8348	0.9228	0.051
H 	H 	0.1475	0.9567	0.0113	-0.024
H 	H 	0.232	0.4637	0.5026	0.027
H 	H 	0.0586	0.632	0.388	-0.011
H 	H 	0.4229	0.2131	0.2776	0.032
H 	H 	0.4242	0.3111	0.3023	0.028
H 	H 	0.2681	0.334	0.3346	0.073
H 	H 	0.2808	0.3219	0.2642	0.043
H 	H 	0.267	0.1735	0.3423	0.081
H 	H 	0.2647	0.1725	0.2717	0.051
H 	H 	0.7346	0.7381	0.8409	0.074
H 	H 	0.6846	0.6778	0.8829	0.07
H 	H 	0.8336	0.6007	0.8721	0.024
H 	H 	0.8178	0.6359	0.939	0.014
H 	H 	0.9732	0.677	0.9602	-0.037
H 	H 	0.1138	0.1888	0.3061	0.022
H 	H 	0.1175	0.2878	0.2811	0.027
H 	H 	0.1845	0.6553	0.3032	0.004
H 	H 	0.2806	0.6541	0.3302	0.016
H 	H 	0.3448	0.5132	0.297	0.061
H 	H 	0.2476	0.4919	0.2877	0.063
H 	H 	0.3411	0.9301	0.1909	0.005
H 	H 	0.2797	0.0301	0.1791	0.005
H 	H 	0.1498	0.991	0.2233	0.073
H 	H 	0.205	0.8872	0.23	0.057
H 	H 	0.9942	0.8227	0.8095	-0
H 	H 	0.1905	0.0146	0.3148	0.012
H 	H 	0.293	0.0011	0.2884	0.009
H 	H 	0.2158	0.8661	0.339	0.044
H 	H 	0.3152	0.8452	0.306	0.033
H 	H 	0.3013	0.6356	0.2189	0.025
H 	H 	0.2215	0.5886	0.2038	0.025
H 	H 	0.3397	0.8122	0.1108	-0.021
H 	H 	0.1223	0.2765	0.5178	0.008
H 	H 	0.0349	0.4153	0.3628	-0.006
H 	H 	0.4009	0.2248	0.5143	-0.001
H 	H 	0.4845	0.0794	0.3595	-0.007
H 	H 	0.2804	0.0169	0.5126	0.011
H 	H 	0.4547	0.8834	0.3776	0.009
H 	H 	0.7313	0.3237	0.8773	-0.027
H 	H 	0.5591	0.4439	0.0055	-0.002
H 	H 	0.5889	0.5084	0.8043	0.054
H 	H 	0.6719	0.5449	0.8274	0.048
H 	H 	0.5883	0.3088	0.1436	0.023
H 	H 	0.5565	0.14	0.0218	-0.044
H 	H 	0.3955	0.1168	0.1353	0.038
H 	H 	0.4184	0.0875	0.0676	0.019
H 	H 	0.3141	0.225	0.0359	0.038
H 	H 	0.2625	0.1652	0.0772	0.048
H 	H 	0.8525	0.0433	0.9887	-0.023
H 	H 	0.768	0.5363	0.4974	0.028
H 	H 	0.9414	0.368	0.612	0.007
H 	H 	0.5771	0.7869	0.7224	0.032
H 	H 	0.5758	0.6889	0.6977	0.027
H 	H 	0.7319	0.666	0.6654	0.075
H 	H 	0.7192	0.6781	0.7358	0.046
H 	H 	0.733	0.8265	0.6577	0.081
H 	H 	0.7353	0.8275	0.7283	0.048
H 	H 	0.2654	0.2619	0.1591	0.072
H 	H 	0.3154	0.3222	0.1171	0.069
H 	H 	0.1664	0.3993	0.1279	0.015
H 	H 	0.1822	0.3641	0.061	0.011
H 	H 	0.0268	0.323	0.0398	-0.027
H 	H 	0.8862	0.8112	0.6939	0.032
H 	H 	0.8825	0.7122	0.7189	0.037
H 	H 	0.8155	0.3447	0.6968	0.011
H 	H 	0.7194	0.3459	0.6698	0.019
H 	H 	0.6552	0.4868	0.703	0.06
H 	H 	0.7524	0.5081	0.7123	0.065
H 	H 	0.6589	0.0699	0.8091	0.046
H 	H 	0.7203	0.9699	0.8209	0.068
H 	H 	0.8502	0.009	0.7767	0.011
H 	H 	0.795	0.1128	0.77	0.005
H 	H 	0.0058	0.1773	0.1905	-0.004
H 	H 	0.8095	0.9854	0.6852	0.129
H 	H 	0.707	0.9989	0.7116	0.121
H 	H 	0.7842	0.1339	0.661	-0.008
H 	H 	0.6848	0.1548	0.694	-0.023
H 	H 	0.6987	0.3644	0.7811	0.027
H 	H 	0.7785	0.4114	0.7962	0.03
H 	H 	0.6603	0.1878	0.8892	-0.016
H 	H 	0.8777	0.7235	0.4822	0.011
H 	H 	0.9651	0.5847	0.6372	0.011
H 	H 	0.5991	0.7752	0.4857	-0.001
H 	H 	0.5155	0.9206	0.6405	-0
H 	H 	0.7196	0.9831	0.4874	0.048
H 	H 	0.5453	0.1166	0.6224	0.006
W 	W 	0.20306	0.92224	0.85882	1.326
W 	W 	0.49543	0.27698	0.77457	1.034
W 	W 	0.12031	0.40288	0.91245	1.055
W 	W 	0.09113	0.1582	0.91295	1.01
W 	W 	0.4604	0.0345	0.77106	1.015
W 	W 	0.16235	0.60843	0.72927	1.018
W 	W 	0.39582	0.5251	0.73124	1.017
W 	W 	0.26704	0.5649	0.86205	1.292
W 	W 	0.34906	0.08018	0.90664	0.875
W 	W 	0.37826	0.32433	0.90797	1.026
W 	W 	0.07499	0.97269	0.73534	1.038
W 	W 	0.14185	0.40874	0.63571	1.365
W 	W 	0.00737	0.45967	0.78268	1.01
W 	W 	0.09982	0.16937	0.63708	1.044
W 	W 	0.30785	0.88989	0.72058	1.018
W 	W 	0.37383	0.33652	0.63194	1.094
W 	W 	0.3322	0.09784	0.63016	1.344
W 	W 	0.97388	0.21709	0.78647	1.093
W 	W 	0.79694	0.07776	0.14118	1.3
W 	W 	0.50457	0.72302	0.22543	1.033
W 	W 	0.87969	0.59712	0.08755	1.07
W 	W 	0.90887	0.8418	0.08705	1.058
W 	W 	0.5396	0.9655	0.22894	1.051
W 	W 	0.83765	0.39157	0.27073	1.036
W 	W 	0.60418	0.4749	0.26876	1.017
W 	W 	0.73296	0.4351	0.13795	1.293
W 	W 	0.65094	0.91982	0.09336	0.896
W 	W 	0.62174	0.67567	0.09203	1.027
W 	W 	0.92501	0.02731	0.26466	1.006
W 	W 	0.85815	0.59126	0.36429	1.371
W 	W 	0.99263	0.54033	0.21732	1.069
W 	W 	0.90018	0.83063	0.36292	1.059
W 	W 	0.69215	0.11011	0.27942	1.011
W 	W 	0.62617	0.66348	0.36806	1.095
W 	W 	0.6678	0.90216	0.36984	1.362
W 	W 	0.02612	0.78291	0.21353	1.01
C 	C 	0.312	0.635	0.099	0.092
C 	C 	0.406	0.568	0.031	0.077
C 	C 	0.351	0.51	0.178	-0.075
C 	C 	0.435	0.731	0.879	0.083
C 	C 	0.455	0.821	0.945	0.117
C 	C 	0.598	0.86	0.906	-0.031
C 	C 	0.692	0.798	0.923	-0.084
C 	C 	0.188	0.94	0.043	0.077
C 	C 	0.21	0.502	0.4699	0.055
C 	C 	0.112	0.597	0.4052	0.054
C 	C 	0.396	0.259	0.308	-0.04
C 	C 	0.294	0.29	0.303	-0.093
C 	C 	0.246	0.211	0.307	-0.109
C 	C 	0.73	0.715	0.882	-0.134
C 	C 	0.82	0.656	0.897	0.001
C 	C 	0.964	0.704	0.922	0.154
C 	C 	0.141	0.241	0.312	-0.03
C 	C 	0.237	0.617	0.323	0.003
C 	C 	0.282	0.54	0.285	-0.15
C 	C 	0.279	0.965	0.181	0.037
C 	C 	0.21	0.951	0.231	-0.177
C 	C 	0.976	0.782	0.837	0.135
C 	C 	0.242	0.972	0.294	0
C 	C 	0.269	0.891	0.3283	-0.085
C 	C 	0.283	0.577	0.219	-0.062
C 	C 	0.294	0.861	0.096	0.098
C 	C 	0.113	0.291	0.4771	0.061
C 	C 	0.063	0.369	0.3895	0.055
C 	C 	0.411	0.209	0.4736	0.067
C 	C 	0.458	0.127	0.3861	0.059
C 	C 	0.303	0.986	0.4766	0.076
C 	C 	0.401	0.911	0.4003	0.053
C 	C 	0.688	0.365	0.901	0.094
C 	C 	0.594	0.432	0.969	0.08
C 	C 	0.649	0.49	0.822	-0.072
C 	C 	0.565	0.269	0.121	0.082
C 	C 	0.545	0.179	0.055	0.117
C 	C 	0.402	0.14	0.094	-0.026
C 	C 	0.308	0.202	0.077	-0.085
C 	C 	0.812	0.06	0.957	0.076
C 	C 	0.79	0.498	0.5301	0.057
C 	C 	0.888	0.403	0.5948	0.058
C 	C 	0.604	0.741	0.692	-0.038
C 	C 	0.706	0.71	0.697	-0.097
C 	C 	0.754	0.789	0.693	-0.104
C 	C 	0.27	0.285	0.118	-0.133
C 	C 	0.18	0.344	0.103	-0.002
C 	C 	0.036	0.296	0.078	0.083
C 	C 	0.859	0.759	0.688	-0.037
C 	C 	0.763	0.383	0.677	-0.001
C 	C 	0.718	0.46	0.715	-0.146
C 	C 	0.721	0.035	0.819	-0.114
C 	C 	0.79	0.049	0.769	0.018
C 	C 	0.024	0.218	0.163	0.08
C 	C 	0.758	0.028	0.706	-0.309
C 	C 	0.731	0.109	0.6717	0.098
C 	C 	0.717	0.423	0.781	-0.066
C 	C 	0.706	0.139	0.904	0.088
C 	C 	0.887	0.709	0.5229	0.069
C 	C 	0.937	0.631	0.6105	0.061
C 	C 	0.589	0.791	0.5264	0.067
C 	C 	0.542	0.873	0.6139	0.061
C 	C 	0.697	0.014	0.5234	0.025
C 	C 	0.599	0.089	0.5997	0.055
N 	N 	0.2652	0.527	0.4213	-0.091
N 	N 	0.205	0.586	0.3813	-0.099
N 	N 	0.115	0.545	0.46	-0.22
N 	N 	0.331	0.65	0.039	-0.265
N 	N 	0.256	0.862	0.044	-0.263
N 	N 	0.061	0.376	0.4536	-0.224
N 	N 	0.148	0.2311	0.4277	-0.088
N 	N 	0.117	0.28	0.3735	-0.094
N 	N 	0.399	0.768	0.934	-0.253
N 	N 	0.458	0.121	0.4503	-0.227
N 	N 	0.383	0.2696	0.4238	-0.089
N 	N 	0.412	0.219	0.3697	-0.093
N 	N 	0.398	0.953	0.4577	-0.221
N 	N 	0.2473	0.965	0.4309	-0.091
N 	N 	0.308	0.919	0.3837	-0.085
N 	N 	0.359	0.557	0.117	-0.094
N 	N 	0.42	0.514	0.076	-0.099
N 	N 	0.526	0.816	0.908	-0.104
N 	N 	0.513	0.765	0.864	-0.091
N 	N 	0.257	0.937	0.124	-0.117
N 	N 	0.895	0.703	0.887	-0.111
N 	N 	0.912	0.741	0.834	-0.11
N 	N 	0.014	0.749	0.894	-0.17
N 	N 	0.183	0.993	0.093	-0.101
N 	N 	0.7348	0.473	0.5787	-0.09
N 	N 	0.795	0.414	0.6187	-0.096
N 	N 	0.885	0.455	0.54	-0.211
N 	N 	0.669	0.35	0.961	-0.264
N 	N 	0.744	0.138	0.956	-0.26
N 	N 	0.939	0.624	0.5464	-0.214
N 	N 	0.852	0.7689	0.5723	-0.084
N 	N 	0.883	0.72	0.6265	-0.09
N 	N 	0.601	0.232	0.066	-0.253
N 	N 	0.542	0.879	0.5497	-0.222
N 	N 	0.617	0.7304	0.5762	-0.089
N 	N 	0.588	0.781	0.6303	-0.093
N 	N 	0.602	0.047	0.5423	-0.22
N 	N 	0.7527	0.035	0.5691	-0.087
N 	N 	0.692	0.081	0.6163	-0.111
N 	N 	0.641	0.443	0.883	-0.094
N 	N 	0.58	0.486	0.924	-0.099
N 	N 	0.474	0.184	0.092	-0.106
N 	N 	0.487	0.235	0.136	-0.091
N 	N 	0.743	0.063	0.876	-0.095
N 	N 	0.105	0.297	0.113	-0.104
N 	N 	0.088	0.259	0.166	-0.108
N 	N 	0.986	0.251	0.106	-0.111
N 	N 	0.817	0.007	0.907	-0.106
O 	O 	0.073	0.457	0.5774	-0.562
O 	O 	0.246	0.341	0.922	-0.438
O 	O 	0.184	0.885	0.7028	-0.449
O 	O 	0.292	0.622	0.7136	-0.437
O 	O 	0.205	0.187	0.9104	-0.357
O 	O 	0.276	0.643	0.9172	-0.517
O 	O 	0.024	0.22	0.7063	-0.471
O 	O 	0.095	0.053	0.6693	-0.465
O 	O 	0.25	0.344	0.7041	-0.376
O 	O 	0.282	0.847	0.8042	-0.452
O 	O 	0.133	0.289	0.6233	-0.469
O 	O 	0.259	0.39	0.5932	-0.468
O 	O 	0.055	0.424	0.7022	-0.481
O 	O 	0.341	0.305	0.8102	-0.34
O 	O 	0.463	0.413	0.7642	-0.449
O 	O 	0.147	0.372	0.8105	-0.342
O 	O 	0.446	0.279	0.6921	-0.465
O 	O 	0.313	0.123	0.8078	-0.338
O 	O 	0.07	0.557	0.7699	-0.447
O 	O 	0.419	0.082	0.6946	-0.466
O 	O 	0.489	0.156	0.7814	-0.441
O 	O 	0.978	0.192	0.8717	-0.439
O 	O 	0.16	0.524	0.6686	-0.474
O 	O 	0.222	0.154	0.7012	-0.378
O 	O 	0.374	0.45	0.6613	-0.47
O 	O 	0.174	0.509	0.8924	-0.476
O 	O 	0.402	0.935	0.7573	-0.428
O 	O 	0.352	0.453	0.8882	-0.461
O 	O 	0.385	0.19	0.9096	-0.419
O 	O 	0.085	0.292	0.9185	-0.428
O 	O 	0.452	0.019	0.857	-0.424
O 	O 	0.374	0.578	0.8071	-0.441
O 	O 	0.117	0.037	0.8899	-0.506
O 	O 	0.314	0.979	0.6587	-0.455
O 	O 	0.013	0.465	0.8696	-0.448
O 	O 	0.493	0.294	0.8595	-0.439
O 	O 	0.189	0.645	0.8073	-0.448
O 	O 	0.214	0.12	0.5917	-0.451
O 	O 	0.01	0.083	0.7684	-0.476
O 	O 	0.097	0.91	0.8116	-0.444
O 	O 	0.34	0.22	0.6174	-0.463
O 	O 	0.126	0.19	0.8137	-0.338
O 	O 	0.306	0.962	0.8713	-0.442
O 	O 	0.979	0.338	0.7961	-0.43
O 	O 	0.264	0.48	0.7761	-0.413
O 	O 	0.193	0.845	0.9145	-0.541
O 	O 	0.202	0.015	0.7732	-0.426
O 	O 	0.406	0.052	0.5718	-0.56
O 	O 	0.927	0.543	0.4226	-0.542
O 	O 	0.754	0.659	0.078	-0.44
O 	O 	0.816	0.115	0.2972	-0.444
O 	O 	0.708	0.378	0.2864	-0.438
O 	O 	0.795	0.813	0.0896	-0.363
O 	O 	0.724	0.357	0.0828	-0.515
O 	O 	0.976	0.78	0.2937	-0.436
O 	O 	0.905	0.947	0.3307	-0.442
O 	O 	0.75	0.656	0.2959	-0.377
O 	O 	0.718	0.153	0.1958	-0.449
O 	O 	0.867	0.711	0.3767	-0.466
O 	O 	0.741	0.61	0.4068	-0.469
O 	O 	0.945	0.576	0.2978	-0.472
O 	O 	0.659	0.695	0.1898	-0.341
O 	O 	0.537	0.587	0.2358	-0.449
O 	O 	0.853	0.628	0.1895	-0.343
O 	O 	0.554	0.721	0.3079	-0.465
O 	O 	0.687	0.877	0.1922	-0.338
O 	O 	0.93	0.443	0.2301	-0.443
O 	O 	0.581	0.918	0.3054	-0.464
O 	O 	0.511	0.844	0.2186	-0.442
O 	O 	0.022	0.808	0.1283	-0.466
O 	O 	0.84	0.476	0.3314	-0.471
O 	O 	0.778	0.846	0.2988	-0.378
O 	O 	0.626	0.55	0.3387	-0.47
O 	O 	0.826	0.491	0.1076	-0.473
O 	O 	0.598	0.065	0.2427	-0.445
O 	O 	0.648	0.547	0.1118	-0.461
O 	O 	0.615	0.81	0.0904	-0.422
O 	O 	0.915	0.708	0.0815	-0.421
O 	O 	0.548	0.981	0.143	-0.417
O 	O 	0.626	0.422	0.1929	-0.441
O 	O 	0.883	0.963	0.1101	-0.486
O 	O 	0.686	0.021	0.3413	-0.474
O 	O 	0.987	0.535	0.1304	-0.434
O 	O 	0.507	0.706	0.1405	-0.439
O 	O 	0.811	0.355	0.1927	-0.444
O 	O 	0.786	0.88	0.4083	-0.448
O 	O 	0.99	0.917	0.2316	-0.429
O 	O 	0.903	0.09	0.1884	-0.433
O 	O 	0.66	0.78	0.3826	-0.466
O 	O 	0.874	0.81	0.1863	-0.322
O 	O 	0.694	0.038	0.1287	-0.457
O 	O 	0.021	0.662	0.2039	-0.461
O 	O 	0.736	0.52	0.2239	-0.415
O 	O 	0.807	0.155	0.0855	-0.534
O 	O 	0.798	0.985	0.2268	-0.405
O 	O 	0.594	0.948	0.4282	-0.551
_end
