data_functionalizedCrystal
_audit_creation_method	'EQeq! by Chris Wilmer'
_symmetry_space_group_name_H-M	'P1'
_symmetry_Int_Tables_number	1
_symmetry_cell_setting	triclinic
loop_
_symmetry_equiv_pos_as_xyz
  x,y,z
_cell_length_a	23.0807
_cell_length_b	23.0807
_cell_length_c	26.6962
_cell_angle_alpha	64.3872
_cell_angle_beta	64.3872
_cell_angle_gamma	89.9998
loop_
_atom_site_label
_atom_site_type_symbol
_atom_site_fract_x
_atom_site_fract_y
_atom_site_fract_z
_atom_site_charge
Ni	Ni	0.31094	0.94434	0.84942	1.042
Ni	Ni	0.33964	0.20624	0.84942	1.042
Ni	Ni	0.44434	0.83964	0.34942	1.042
Ni	Ni	0.70624	0.81094	0.34942	1.042
Ni	Ni	0.68906	0.05566	0.15058	1.042
Ni	Ni	0.66036	0.79376	0.15058	1.042
Ni	Ni	0.55566	0.16036	0.65058	1.042
Ni	Ni	0.29376	0.18906	0.65058	1.042
Ni	Ni	0.375	0.125	0.75	1.026
Ni	Ni	0.625	0.875	0.25	1.026
H 	H 	0.4225	0.8579	0.8214	0.058
H 	H 	0.5236	0.8342	0.7804	0.035
H 	H 	0.6191	0.9169	0.7084	0.034
H 	H 	0.6166	0.0269	0.6716	0.057
H 	H 	0.2374	0.8955	0.0054	0.061
H 	H 	0.1959	0.9002	0.099	0.046
H 	H 	0.3956	0.7934	0.096	0.058
H 	H 	0.4981	0.7993	0.087	0.057
H 	H 	0.5779	0.8529	0.9014	0.058
H 	H 	0.475	0.8502	0.9096	0.058
H 	H 	0.2561	0.3207	0.8214	0.059
H 	H 	0.196	0.3854	0.7804	0.035
H 	H 	0.1725	0.3747	0.7084	0.035
H 	H 	0.2118	0.3015	0.6716	0.056
H 	H 	0.2572	0.0991	0.0054	0.064
H 	H 	0.2051	0.0008	0.099	0.043
H 	H 	0.0084	0.1106	0.096	0.058
H 	H 	0.9149	0.1137	0.087	0.06
H 	H 	0.0207	0.2457	0.9014	0.06
H 	H 	0.1154	0.2402	0.9096	0.058
H 	H 	0.3579	0.7561	0.3214	0.06
H 	H 	0.3342	0.696	0.2804	0.036
H 	H 	0.4169	0.6725	0.2084	0.036
H 	H 	0.5269	0.7118	0.1716	0.057
H 	H 	0.3955	0.7572	0.5054	0.063
H 	H 	0.4002	0.7051	0.599	0.045
H 	H 	0.2934	0.5084	0.596	0.059
H 	H 	0.2993	0.4149	0.587	0.059
H 	H 	0.3529	0.5207	0.4014	0.059
H 	H 	0.3502	0.6154	0.4096	0.059
H 	H 	0.8207	0.9225	0.3214	0.059
H 	H 	0.8854	0.0236	0.2804	0.036
H 	H 	0.8747	0.1191	0.2084	0.035
H 	H 	0.8015	0.1166	0.1716	0.057
H 	H 	0.5991	0.7374	0.5054	0.063
H 	H 	0.5008	0.6959	0.599	0.045
H 	H 	0.6106	0.8956	0.596	0.059
H 	H 	0.6137	0.9981	0.587	0.059
H 	H 	0.7457	0.0779	0.4014	0.059
H 	H 	0.7402	0.975	0.4096	0.059
H 	H 	0.5775	0.1421	0.1786	0.059
H 	H 	0.4764	0.1658	0.2196	0.036
H 	H 	0.3809	0.0831	0.2916	0.035
H 	H 	0.3834	0.9731	0.3284	0.058
H 	H 	0.7626	0.1045	0.9946	0.062
H 	H 	0.8041	0.0998	0.901	0.047
H 	H 	0.6044	0.2066	0.904	0.059
H 	H 	0.5019	0.2007	0.913	0.058
H 	H 	0.4221	0.1471	0.0986	0.059
H 	H 	0.525	0.1498	0.0904	0.059
H 	H 	0.7439	0.6793	0.1786	0.06
H 	H 	0.804	0.6146	0.2196	0.036
H 	H 	0.8275	0.6253	0.2916	0.036
H 	H 	0.7882	0.6985	0.3284	0.057
H 	H 	0.7428	0.9009	0.9946	0.065
H 	H 	0.7949	0.9992	0.901	0.044
H 	H 	0.9916	0.8894	0.904	0.058
H 	H 	0.0851	0.8863	0.913	0.06
H 	H 	0.9793	0.7543	0.0986	0.06
H 	H 	0.8846	0.7598	0.0904	0.058
H 	H 	0.6421	0.2439	0.6786	0.06
H 	H 	0.6658	0.304	0.7196	0.036
H 	H 	0.5831	0.3275	0.7916	0.036
H 	H 	0.4731	0.2882	0.8284	0.057
H 	H 	0.6045	0.2428	0.4946	0.063
H 	H 	0.5998	0.2949	0.401	0.045
H 	H 	0.7066	0.4916	0.404	0.059
H 	H 	0.7007	0.5851	0.413	0.059
H 	H 	0.6471	0.4793	0.5986	0.059
H 	H 	0.6498	0.3846	0.5904	0.059
H 	H 	0.1793	0.0775	0.6786	0.059
H 	H 	0.1146	0.9764	0.7196	0.036
H 	H 	0.1253	0.8809	0.7916	0.035
H 	H 	0.1985	0.8834	0.8284	0.057
H 	H 	0.4009	0.2626	0.4946	0.063
H 	H 	0.4992	0.3041	0.401	0.045
H 	H 	0.3894	0.1044	0.404	0.059
H 	H 	0.3863	0.0019	0.413	0.059
H 	H 	0.2543	0.9221	0.5986	0.059
H 	H 	0.2598	0.025	0.5904	0.059
C 	C 	0.45879	0.95898	0.7702	0.052
C 	C 	0.46055	0.8913	0.79198	-0.108
C 	C 	0.52065	0.87805	0.7675	-0.019
C 	C 	0.57898	0.92858	0.72304	-0.023
C 	C 	0.57804	0.99382	0.70112	-0.109
C 	C 	0.51555	0.0087	0.72548	0.055
C 	C 	0.27283	0.99602	0.94814	0.054
C 	C 	0.24131	0.93561	0.00538	-0.094
C 	C 	0.21684	0.93904	0.06052	-0.023
C 	C 	0.34851	0.8496	0.9561	0.131
C 	C 	0.30127	0.79247	0.06926	0.107
C 	C 	0.35863	0.81769	0.00962	-0.125
C 	C 	0.4227	0.82044	0.00356	0.072
C 	C 	0.43207	0.80546	0.05688	-0.069
C 	C 	0.4934	0.80841	0.05158	-0.07
C 	C 	0.55001	0.8251	0.9935	0.071
C 	C 	0.54133	0.84097	0.94046	-0.068
C 	C 	0.47939	0.83893	0.94554	-0.072
C 	C 	0.61394	0.82656	0.98882	-0.127
C 	C 	0.67124	0.84184	0.93272	0.108
C 	C 	0.6231	0.81521	0.041	0.131
C 	C 	0.27101	0.27082	0.7702	0.053
C 	C 	0.24747	0.31672	0.79198	-0.109
C 	C 	0.21185	0.35445	0.7675	-0.018
C 	C 	0.19798	0.34838	0.72304	-0.024
C 	C 	0.22084	0.30506	0.70112	-0.107
C 	C 	0.25897	0.26582	0.72548	0.054
C 	C 	0.27903	0.05584	0.94814	0.064
C 	C 	0.25331	0.05901	0.00538	-0.103
C 	C 	0.22264	0.00044	0.06052	-0.016
C 	C 	0.19539	0.1943	0.9561	0.132
C 	C 	0.12947	0.13827	0.06926	0.107
C 	C 	0.13175	0.17269	0.00962	-0.124
C 	C 	0.07374	0.176	0.00356	0.068
C 	C 	0.01105	0.13766	0.05688	-0.064
C 	C 	0.95502	0.14001	0.05158	-0.078
C 	C 	0.95649	0.1814	0.9935	0.075
C 	C 	0.01821	0.21857	0.94046	-0.071
C 	C 	0.07507	0.21553	0.94554	-0.068
C 	C 	0.89724	0.18462	0.98882	-0.126
C 	C 	0.89604	0.22544	0.93272	0.108
C 	C 	0.8359	0.14379	0.041	0.13
C 	C 	0.45898	0.77101	0.2702	0.053
C 	C 	0.3913	0.74747	0.29198	-0.109
C 	C 	0.37805	0.71185	0.2675	-0.018
C 	C 	0.42858	0.69798	0.22304	-0.024
C 	C 	0.49382	0.72084	0.20112	-0.107
C 	C 	0.5087	0.75897	0.22548	0.054
C 	C 	0.49602	0.77903	0.44814	0.06
C 	C 	0.43561	0.75331	0.50538	-0.099
C 	C 	0.43904	0.72264	0.56052	-0.019
C 	C 	0.3496	0.69539	0.4561	0.132
C 	C 	0.29247	0.62947	0.56926	0.107
C 	C 	0.31769	0.63175	0.50962	-0.125
C 	C 	0.32044	0.57374	0.50356	0.071
C 	C 	0.30546	0.51105	0.55688	-0.068
C 	C 	0.30841	0.45502	0.55158	-0.072
C 	C 	0.3251	0.45649	0.4935	0.072
C 	C 	0.34097	0.51821	0.44046	-0.069
C 	C 	0.33893	0.57507	0.44554	-0.07
C 	C 	0.32656	0.39724	0.48882	-0.126
C 	C 	0.34184	0.39604	0.43272	0.108
C 	C 	0.31521	0.3359	0.541	0.131
C 	C 	0.77082	0.95879	0.2702	0.054
C 	C 	0.81672	0.96055	0.29198	-0.107
C 	C 	0.85445	0.02065	0.2675	-0.021
C 	C 	0.84838	0.07898	0.22304	-0.023
C 	C 	0.80506	0.07804	0.20112	-0.107
C 	C 	0.76582	0.01555	0.22548	0.052
C 	C 	0.55584	0.77283	0.44814	0.06
C 	C 	0.55901	0.74131	0.50538	-0.099
C 	C 	0.50044	0.71684	0.56052	-0.019
C 	C 	0.6943	0.84851	0.4561	0.132
C 	C 	0.63827	0.80127	0.56926	0.107
C 	C 	0.67269	0.85863	0.50962	-0.125
C 	C 	0.676	0.9227	0.50356	0.07
C 	C 	0.63766	0.93207	0.55688	-0.068
C 	C 	0.64001	0.9934	0.55158	-0.072
C 	C 	0.6814	0.05001	0.4935	0.072
C 	C 	0.71857	0.04133	0.44046	-0.071
C 	C 	0.71553	0.97939	0.44554	-0.069
C 	C 	0.68462	0.11394	0.48882	-0.126
C 	C 	0.72544	0.17124	0.43272	0.108
C 	C 	0.64379	0.1231	0.541	0.131
C 	C 	0.54121	0.04102	0.2298	0.052
C 	C 	0.53945	0.1087	0.20802	-0.108
C 	C 	0.47935	0.12195	0.2325	-0.019
C 	C 	0.42102	0.07142	0.27696	-0.023
C 	C 	0.42196	0.00618	0.29888	-0.109
C 	C 	0.48445	0.9913	0.27452	0.055
C 	C 	0.72717	0.00398	0.05186	0.054
C 	C 	0.75869	0.06439	0.99462	-0.094
C 	C 	0.78316	0.06096	0.93948	-0.023
C 	C 	0.65149	0.1504	0.0439	0.131
C 	C 	0.69873	0.20753	0.93074	0.107
C 	C 	0.64137	0.18231	0.99038	-0.125
C 	C 	0.5773	0.17956	0.99644	0.072
C 	C 	0.56793	0.19454	0.94312	-0.069
C 	C 	0.5066	0.19159	0.94842	-0.07
C 	C 	0.44999	0.1749	0.0065	0.071
C 	C 	0.45867	0.15903	0.05954	-0.068
C 	C 	0.52061	0.16107	0.05446	-0.072
C 	C 	0.38606	0.17344	0.01118	-0.127
C 	C 	0.32876	0.15816	0.06728	0.108
C 	C 	0.3769	0.18479	0.959	0.131
C 	C 	0.72899	0.72918	0.2298	0.053
C 	C 	0.75253	0.68328	0.20802	-0.109
C 	C 	0.78815	0.64555	0.2325	-0.018
C 	C 	0.80202	0.65162	0.27696	-0.024
C 	C 	0.77916	0.69494	0.29888	-0.107
C 	C 	0.74103	0.73418	0.27452	0.054
C 	C 	0.72097	0.94416	0.05186	0.064
C 	C 	0.74669	0.94099	0.99462	-0.103
C 	C 	0.77736	0.99956	0.93948	-0.016
C 	C 	0.80461	0.8057	0.0439	0.132
C 	C 	0.87053	0.86173	0.93074	0.107
C 	C 	0.86825	0.82731	0.99038	-0.124
C 	C 	0.92626	0.824	0.99644	0.068
C 	C 	0.98895	0.86234	0.94312	-0.064
C 	C 	0.04498	0.85999	0.94842	-0.078
C 	C 	0.04351	0.8186	0.0065	0.075
C 	C 	0.98179	0.78143	0.05954	-0.071
C 	C 	0.92493	0.78447	0.05446	-0.068
C 	C 	0.10276	0.81538	0.01118	-0.126
C 	C 	0.10396	0.77456	0.06728	0.108
C 	C 	0.1641	0.85621	0.959	0.13
C 	C 	0.54102	0.22899	0.7298	0.053
C 	C 	0.6087	0.25253	0.70802	-0.109
C 	C 	0.62195	0.28815	0.7325	-0.018
C 	C 	0.57142	0.30202	0.77696	-0.024
C 	C 	0.50618	0.27916	0.79888	-0.107
C 	C 	0.4913	0.24103	0.77452	0.054
C 	C 	0.50398	0.22097	0.55186	0.06
C 	C 	0.56439	0.24669	0.49462	-0.099
C 	C 	0.56096	0.27736	0.43948	-0.019
C 	C 	0.6504	0.30461	0.5439	0.132
C 	C 	0.70753	0.37053	0.43074	0.107
C 	C 	0.68231	0.36825	0.49038	-0.125
C 	C 	0.67956	0.42626	0.49644	0.071
C 	C 	0.69454	0.48895	0.44312	-0.068
C 	C 	0.69159	0.54498	0.44842	-0.072
C 	C 	0.6749	0.54351	0.5065	0.072
C 	C 	0.65903	0.48179	0.55954	-0.069
C 	C 	0.66107	0.42493	0.55446	-0.07
C 	C 	0.67344	0.60276	0.51118	-0.126
C 	C 	0.65816	0.60396	0.56728	0.108
C 	C 	0.68479	0.6641	0.459	0.131
C 	C 	0.22918	0.04121	0.7298	0.054
C 	C 	0.18328	0.03945	0.70802	-0.107
C 	C 	0.14555	0.97935	0.7325	-0.021
C 	C 	0.15162	0.92102	0.77696	-0.023
C 	C 	0.19494	0.92196	0.79888	-0.107
C 	C 	0.23418	0.98445	0.77452	0.052
C 	C 	0.44416	0.22717	0.55186	0.06
C 	C 	0.44099	0.25869	0.49462	-0.099
C 	C 	0.49956	0.28316	0.43948	-0.019
C 	C 	0.3057	0.15149	0.5439	0.132
C 	C 	0.36173	0.19873	0.43074	0.107
C 	C 	0.32731	0.14137	0.49038	-0.125
C 	C 	0.324	0.0773	0.49644	0.07
C 	C 	0.36234	0.06793	0.44312	-0.068
C 	C 	0.35999	0.0066	0.44842	-0.072
C 	C 	0.3186	0.94999	0.5065	0.072
C 	C 	0.28143	0.95867	0.55954	-0.071
C 	C 	0.28447	0.02061	0.55446	-0.069
C 	C 	0.31538	0.88606	0.51118	-0.126
C 	C 	0.27456	0.82876	0.56728	0.108
C 	C 	0.35621	0.8769	0.459	0.131
N 	N 	0.43217	0.05329	0.7497	-0.174
N 	N 	0.40737	0.98884	0.78476	-0.219
N 	N 	0.49695	0.06706	0.71348	-0.216
N 	N 	0.30211	0.00921	0.88648	-0.202
N 	N 	0.33819	0.8779	0.91474	-0.263
N 	N 	0.25521	0.77091	0.11758	-0.14
N 	N 	0.71869	0.85439	0.88622	-0.144
N 	N 	0.63178	0.80714	0.08276	-0.264
N 	N 	0.31813	0.19701	0.7497	-0.175
N 	N 	0.30787	0.2264	0.78476	-0.218
N 	N 	0.28957	0.21946	0.71348	-0.216
N 	N 	0.31141	0.10431	0.88648	-0.204
N 	N 	0.24707	0.20736	0.91474	-0.263
N 	N 	0.12721	0.11151	0.11758	-0.139
N 	N 	0.89509	0.25939	0.88622	-0.144
N 	N 	0.78546	0.1101	0.08276	-0.264
N 	N 	0.55329	0.81813	0.2497	-0.175
N 	N 	0.48884	0.80787	0.28476	-0.218
N 	N 	0.56706	0.78957	0.21348	-0.216
N 	N 	0.50921	0.81141	0.38648	-0.204
N 	N 	0.3779	0.74707	0.41474	-0.263
N 	N 	0.27091	0.62721	0.61758	-0.14
N 	N 	0.35439	0.39509	0.38622	-0.144
N 	N 	0.30714	0.28546	0.58276	-0.264
N 	N 	0.69701	0.93217	0.2497	-0.175
N 	N 	0.7264	0.90737	0.28476	-0.218
N 	N 	0.71946	0.99695	0.21348	-0.215
N 	N 	0.60431	0.80211	0.38648	-0.204
N 	N 	0.70736	0.83819	0.41474	-0.263
N 	N 	0.61151	0.75521	0.61758	-0.139
N 	N 	0.75939	0.21869	0.38622	-0.144
N 	N 	0.6101	0.13178	0.58276	-0.264
N 	N 	0.56783	0.94671	0.2503	-0.174
N 	N 	0.59263	0.01116	0.21524	-0.219
N 	N 	0.50305	0.93294	0.28652	-0.216
N 	N 	0.69789	0.99079	0.11352	-0.202
N 	N 	0.66181	0.1221	0.08526	-0.263
N 	N 	0.74479	0.22909	0.88242	-0.14
N 	N 	0.28131	0.14561	0.11378	-0.144
N 	N 	0.36822	0.19286	0.91724	-0.264
N 	N 	0.68187	0.80299	0.2503	-0.175
N 	N 	0.69213	0.7736	0.21524	-0.218
N 	N 	0.71043	0.78054	0.28652	-0.216
N 	N 	0.68859	0.89569	0.11352	-0.204
N 	N 	0.75293	0.79264	0.08526	-0.263
N 	N 	0.87279	0.88849	0.88242	-0.139
N 	N 	0.10491	0.74061	0.11378	-0.144
N 	N 	0.21454	0.8899	0.91724	-0.264
N 	N 	0.44671	0.18187	0.7503	-0.175
N 	N 	0.51116	0.19213	0.71524	-0.218
N 	N 	0.43294	0.21043	0.78652	-0.216
N 	N 	0.49079	0.18859	0.61352	-0.204
N 	N 	0.6221	0.25293	0.58526	-0.263
N 	N 	0.72909	0.37279	0.38242	-0.14
N 	N 	0.64561	0.60491	0.61378	-0.144
N 	N 	0.69286	0.71454	0.41724	-0.264
N 	N 	0.30299	0.06783	0.7503	-0.175
N 	N 	0.2736	0.09263	0.71524	-0.218
N 	N 	0.28054	0.00305	0.78652	-0.215
N 	N 	0.39569	0.19789	0.61352	-0.204
N 	N 	0.29264	0.16181	0.58526	-0.263
N 	N 	0.38849	0.24479	0.38242	-0.139
N 	N 	0.24061	0.78131	0.61378	-0.144
N 	N 	0.3899	0.86822	0.41724	-0.264
N 	N 	0.3245	0.0745	0.851	-0.174
N 	N 	0.5745	0.8245	0.351	-0.174
N 	N 	0.6755	0.9255	0.149	-0.174
N 	N 	0.4255	0.1755	0.649	-0.174
Ni	Ni	0.16036	0.55566	0.15058	1.043
Ni	Ni	0.18906	0.29376	0.15058	1.043
Ni	Ni	0.79376	0.66036	0.65058	1.043
Ni	Ni	0.05566	0.68906	0.65058	1.043
Ni	Ni	0.83964	0.44434	0.84942	1.043
Ni	Ni	0.81094	0.70624	0.84942	1.043
Ni	Ni	0.20624	0.33964	0.34942	1.043
Ni	Ni	0.94434	0.31094	0.34942	1.043
Ni	Ni	0.125	0.375	0.25	1.027
Ni	Ni	0.875	0.625	0.75	1.027
H 	H 	0.2439	0.6421	0.1786	0.06
H 	H 	0.304	0.6658	0.2196	0.036
H 	H 	0.3275	0.5831	0.2916	0.036
H 	H 	0.2882	0.4731	0.3284	0.057
H 	H 	0.2428	0.6045	0.9946	0.063
H 	H 	0.2949	0.5998	0.901	0.045
H 	H 	0.4916	0.7066	0.904	0.059
H 	H 	0.5851	0.7007	0.913	0.059
H 	H 	0.4793	0.6471	0.0986	0.059
H 	H 	0.3846	0.6498	0.0904	0.059
H 	H 	0.0775	0.1793	0.1786	0.059
H 	H 	0.9764	0.1146	0.2196	0.036
H 	H 	0.8809	0.1253	0.2916	0.035
H 	H 	0.8834	0.1985	0.3284	0.057
H 	H 	0.2626	0.4009	0.9946	0.063
H 	H 	0.3041	0.4992	0.901	0.045
H 	H 	0.1044	0.3894	0.904	0.059
H 	H 	0.0019	0.3863	0.913	0.059
H 	H 	0.9221	0.2543	0.0986	0.06
H 	H 	0.025	0.2598	0.0904	0.058
H 	H 	0.6793	0.7439	0.6786	0.06
H 	H 	0.6146	0.804	0.7196	0.036
H 	H 	0.6253	0.8275	0.7916	0.036
H 	H 	0.6985	0.7882	0.8284	0.057
H 	H 	0.9009	0.7428	0.4946	0.064
H 	H 	0.9992	0.7949	0.401	0.045
H 	H 	0.8894	0.9916	0.404	0.059
H 	H 	0.8863	0.0851	0.413	0.059
H 	H 	0.7543	0.9793	0.5986	0.059
H 	H 	0.7598	0.8846	0.5904	0.059
H 	H 	0.1421	0.5775	0.6786	0.059
H 	H 	0.1658	0.4764	0.7196	0.036
H 	H 	0.0831	0.3809	0.7916	0.035
H 	H 	0.9731	0.3834	0.8284	0.057
H 	H 	0.1045	0.7626	0.4946	0.063
H 	H 	0.0998	0.8041	0.401	0.046
H 	H 	0.2066	0.6044	0.404	0.059
H 	H 	0.2007	0.5019	0.413	0.059
H 	H 	0.1471	0.4221	0.5986	0.059
H 	H 	0.1498	0.525	0.5904	0.059
H 	H 	0.7561	0.3579	0.8214	0.06
H 	H 	0.696	0.3342	0.7804	0.036
H 	H 	0.6725	0.4169	0.7084	0.036
H 	H 	0.7118	0.5269	0.6716	0.057
H 	H 	0.7572	0.3955	0.0054	0.063
H 	H 	0.7051	0.4002	0.099	0.045
H 	H 	0.5084	0.2934	0.096	0.059
H 	H 	0.4149	0.2993	0.087	0.059
H 	H 	0.5207	0.3529	0.9014	0.059
H 	H 	0.6154	0.3502	0.9096	0.059
H 	H 	0.9225	0.8207	0.8214	0.059
H 	H 	0.0236	0.8854	0.7804	0.036
H 	H 	0.1191	0.8747	0.7084	0.035
H 	H 	0.1166	0.8015	0.6716	0.057
H 	H 	0.7374	0.5991	0.0054	0.063
H 	H 	0.6959	0.5008	0.099	0.045
H 	H 	0.8956	0.6106	0.096	0.059
H 	H 	0.9981	0.6137	0.087	0.059
H 	H 	0.0779	0.7457	0.9014	0.06
H 	H 	0.975	0.7402	0.9096	0.058
H 	H 	0.3207	0.2561	0.3214	0.06
H 	H 	0.3854	0.196	0.2804	0.036
H 	H 	0.3747	0.1725	0.2084	0.036
H 	H 	0.3015	0.2118	0.1716	0.057
H 	H 	0.0991	0.2572	0.5054	0.064
H 	H 	0.0008	0.2051	0.599	0.045
H 	H 	0.1106	0.0084	0.596	0.059
H 	H 	0.1137	0.9149	0.587	0.059
H 	H 	0.2457	0.0207	0.4014	0.059
H 	H 	0.2402	0.1154	0.4096	0.059
H 	H 	0.8579	0.4225	0.3214	0.059
H 	H 	0.8342	0.5236	0.2804	0.036
H 	H 	0.9169	0.6191	0.2084	0.035
H 	H 	0.0269	0.6166	0.1716	0.057
H 	H 	0.8955	0.2374	0.5054	0.063
H 	H 	0.9002	0.1959	0.599	0.046
H 	H 	0.7934	0.3956	0.596	0.059
H 	H 	0.7993	0.4981	0.587	0.059
H 	H 	0.8529	0.5779	0.4014	0.059
H 	H 	0.8502	0.475	0.4096	0.059
C 	C 	0.22899	0.54102	0.2298	0.053
C 	C 	0.25253	0.6087	0.20802	-0.109
C 	C 	0.28815	0.62195	0.2325	-0.018
C 	C 	0.30202	0.57142	0.27696	-0.024
C 	C 	0.27916	0.50618	0.29888	-0.107
C 	C 	0.24103	0.4913	0.27452	0.054
C 	C 	0.22097	0.50398	0.05186	0.06
C 	C 	0.24669	0.56439	0.99462	-0.1
C 	C 	0.27736	0.56096	0.93948	-0.019
C 	C 	0.30461	0.6504	0.0439	0.132
C 	C 	0.37053	0.70753	0.93074	0.107
C 	C 	0.36825	0.68231	0.99038	-0.125
C 	C 	0.42626	0.67956	0.99644	0.07
C 	C 	0.48895	0.69454	0.94312	-0.067
C 	C 	0.54498	0.69159	0.94842	-0.073
C 	C 	0.54351	0.6749	0.0065	0.073
C 	C 	0.48179	0.65903	0.05954	-0.07
C 	C 	0.42493	0.66107	0.05446	-0.069
C 	C 	0.60276	0.67344	0.01118	-0.126
C 	C 	0.60396	0.65816	0.06728	0.108
C 	C 	0.6641	0.68479	0.959	0.13
C 	C 	0.04121	0.22918	0.2298	0.053
C 	C 	0.03945	0.18328	0.20802	-0.107
C 	C 	0.97935	0.14555	0.2325	-0.021
C 	C 	0.92102	0.15162	0.27696	-0.023
C 	C 	0.92196	0.19494	0.29888	-0.108
C 	C 	0.98445	0.23418	0.27452	0.053
C 	C 	0.22717	0.44416	0.05186	0.06
C 	C 	0.25869	0.44099	0.99462	-0.099
C 	C 	0.28316	0.49956	0.93948	-0.02
C 	C 	0.15149	0.3057	0.0439	0.132
C 	C 	0.19873	0.36173	0.93074	0.107
C 	C 	0.14137	0.32731	0.99038	-0.125
C 	C 	0.0773	0.324	0.99644	0.07
C 	C 	0.06793	0.36234	0.94312	-0.068
C 	C 	0.0066	0.35999	0.94842	-0.072
C 	C 	0.94999	0.3186	0.0065	0.072
C 	C 	0.95867	0.28143	0.05954	-0.071
C 	C 	0.02061	0.28447	0.05446	-0.069
C 	C 	0.88606	0.31538	0.01118	-0.127
C 	C 	0.82876	0.27456	0.06728	0.108
C 	C 	0.8769	0.35621	0.959	0.131
C 	C 	0.72918	0.72899	0.7298	0.053
C 	C 	0.68328	0.75253	0.70802	-0.109
C 	C 	0.64555	0.78815	0.7325	-0.018
C 	C 	0.65162	0.80202	0.77696	-0.024
C 	C 	0.69494	0.77916	0.79888	-0.107
C 	C 	0.73418	0.74103	0.77452	0.054
C 	C 	0.94416	0.72097	0.55186	0.062
C 	C 	0.94099	0.74669	0.49462	-0.101
C 	C 	0.99956	0.77736	0.43948	-0.017
C 	C 	0.8057	0.80461	0.5439	0.132
C 	C 	0.86173	0.87053	0.43074	0.107
C 	C 	0.82731	0.86825	0.49038	-0.125
C 	C 	0.824	0.92626	0.49644	0.07
C 	C 	0.86234	0.98895	0.44312	-0.066
C 	C 	0.85999	0.04498	0.44842	-0.074
C 	C 	0.8186	0.04351	0.5065	0.072
C 	C 	0.78143	0.98179	0.55954	-0.069
C 	C 	0.78447	0.92493	0.55446	-0.07
C 	C 	0.81538	0.10276	0.51118	-0.126
C 	C 	0.77456	0.10396	0.56728	0.108
C 	C 	0.85621	0.1641	0.459	0.131
C 	C 	0.04102	0.54121	0.7298	0.053
C 	C 	0.1087	0.53945	0.70802	-0.109
C 	C 	0.12195	0.47935	0.7325	-0.018
C 	C 	0.07142	0.42102	0.77696	-0.023
C 	C 	0.00618	0.42196	0.79888	-0.108
C 	C 	0.9913	0.48445	0.77452	0.054
C 	C 	0.00398	0.72717	0.55186	0.057
C 	C 	0.06439	0.75869	0.49462	-0.097
C 	C 	0.06096	0.78316	0.43948	-0.022
C 	C 	0.1504	0.65149	0.5439	0.132
C 	C 	0.20753	0.69873	0.43074	0.107
C 	C 	0.18231	0.64137	0.49038	-0.125
C 	C 	0.17956	0.5773	0.49644	0.071
C 	C 	0.19454	0.56793	0.44312	-0.068
C 	C 	0.19159	0.5066	0.44842	-0.072
C 	C 	0.1749	0.44999	0.5065	0.072
C 	C 	0.15903	0.45867	0.55954	-0.069
C 	C 	0.16107	0.52061	0.55446	-0.07
C 	C 	0.17344	0.38606	0.51118	-0.126
C 	C 	0.15816	0.32876	0.56728	0.108
C 	C 	0.18479	0.3769	0.459	0.131
C 	C 	0.77101	0.45898	0.7702	0.053
C 	C 	0.74747	0.3913	0.79198	-0.109
C 	C 	0.71185	0.37805	0.7675	-0.018
C 	C 	0.69798	0.42858	0.72304	-0.024
C 	C 	0.72084	0.49382	0.70112	-0.107
C 	C 	0.75897	0.5087	0.72548	0.054
C 	C 	0.77903	0.49602	0.94814	0.06
C 	C 	0.75331	0.43561	0.00538	-0.1
C 	C 	0.72264	0.43904	0.06052	-0.019
C 	C 	0.69539	0.3496	0.9561	0.132
C 	C 	0.62947	0.29247	0.06926	0.107
C 	C 	0.63175	0.31769	0.00962	-0.125
C 	C 	0.57374	0.32044	0.00356	0.07
C 	C 	0.51105	0.30546	0.05688	-0.067
C 	C 	0.45502	0.30841	0.05158	-0.073
C 	C 	0.45649	0.3251	0.9935	0.073
C 	C 	0.51821	0.34097	0.94046	-0.07
C 	C 	0.57507	0.33893	0.94554	-0.069
C 	C 	0.39724	0.32656	0.98882	-0.126
C 	C 	0.39604	0.34184	0.93272	0.108
C 	C 	0.3359	0.31521	0.041	0.13
C 	C 	0.95879	0.77082	0.7702	0.053
C 	C 	0.96055	0.81672	0.79198	-0.107
C 	C 	0.02065	0.85445	0.7675	-0.021
C 	C 	0.07898	0.84838	0.72304	-0.023
C 	C 	0.07804	0.80506	0.70112	-0.108
C 	C 	0.01555	0.76582	0.72548	0.053
C 	C 	0.77283	0.55584	0.94814	0.06
C 	C 	0.74131	0.55901	0.00538	-0.099
C 	C 	0.71684	0.50044	0.06052	-0.02
C 	C 	0.84851	0.6943	0.9561	0.132
C 	C 	0.80127	0.63827	0.06926	0.107
C 	C 	0.85863	0.67269	0.00962	-0.125
C 	C 	0.9227	0.676	0.00356	0.07
C 	C 	0.93207	0.63766	0.05688	-0.068
C 	C 	0.9934	0.64001	0.05158	-0.072
C 	C 	0.05001	0.6814	0.9935	0.072
C 	C 	0.04133	0.71857	0.94046	-0.071
C 	C 	0.97939	0.71553	0.94554	-0.069
C 	C 	0.11394	0.68462	0.98882	-0.127
C 	C 	0.17124	0.72544	0.93272	0.108
C 	C 	0.1231	0.64379	0.041	0.131
C 	C 	0.27082	0.27101	0.2702	0.053
C 	C 	0.31672	0.24747	0.29198	-0.109
C 	C 	0.35445	0.21185	0.2675	-0.018
C 	C 	0.34838	0.19798	0.22304	-0.024
C 	C 	0.30506	0.22084	0.20112	-0.107
C 	C 	0.26582	0.25897	0.22548	0.054
C 	C 	0.05584	0.27903	0.44814	0.062
C 	C 	0.05901	0.25331	0.50538	-0.101
C 	C 	0.00044	0.22264	0.56052	-0.017
C 	C 	0.1943	0.19539	0.4561	0.132
C 	C 	0.13827	0.12947	0.56926	0.107
C 	C 	0.17269	0.13175	0.50962	-0.125
C 	C 	0.176	0.07374	0.50356	0.07
C 	C 	0.13766	0.01105	0.55688	-0.066
C 	C 	0.14001	0.95502	0.55158	-0.074
C 	C 	0.1814	0.95649	0.4935	0.072
C 	C 	0.21857	0.01821	0.44046	-0.069
C 	C 	0.21553	0.07507	0.44554	-0.07
C 	C 	0.18462	0.89724	0.48882	-0.126
C 	C 	0.22544	0.89604	0.43272	0.108
C 	C 	0.14379	0.8359	0.541	0.131
C 	C 	0.95898	0.45879	0.2702	0.053
C 	C 	0.8913	0.46055	0.29198	-0.109
C 	C 	0.87805	0.52065	0.2675	-0.018
C 	C 	0.92858	0.57898	0.22304	-0.023
C 	C 	0.99382	0.57804	0.20112	-0.108
C 	C 	0.0087	0.51555	0.22548	0.054
C 	C 	0.99602	0.27283	0.44814	0.057
C 	C 	0.93561	0.24131	0.50538	-0.097
C 	C 	0.93904	0.21684	0.56052	-0.022
C 	C 	0.8496	0.34851	0.4561	0.132
C 	C 	0.79247	0.30127	0.56926	0.107
C 	C 	0.81769	0.35863	0.50962	-0.125
C 	C 	0.82044	0.4227	0.50356	0.071
C 	C 	0.80546	0.43207	0.55688	-0.068
C 	C 	0.80841	0.4934	0.55158	-0.072
C 	C 	0.8251	0.55001	0.4935	0.072
C 	C 	0.84097	0.54133	0.44046	-0.069
C 	C 	0.83893	0.47939	0.44554	-0.07
C 	C 	0.82656	0.61394	0.48882	-0.126
C 	C 	0.84184	0.67124	0.43272	0.108
C 	C 	0.81521	0.6231	0.541	0.131
N 	N 	0.18187	0.44671	0.2503	-0.175
N 	N 	0.19213	0.51116	0.21524	-0.218
N 	N 	0.21043	0.43294	0.28652	-0.216
N 	N 	0.18859	0.49079	0.11352	-0.204
N 	N 	0.25293	0.6221	0.08526	-0.263
N 	N 	0.37279	0.72909	0.88242	-0.14
N 	N 	0.60491	0.64561	0.11378	-0.144
N 	N 	0.71454	0.69286	0.91724	-0.264
N 	N 	0.06783	0.30299	0.2503	-0.175
N 	N 	0.09263	0.2736	0.21524	-0.218
N 	N 	0.00305	0.28054	0.28652	-0.216
N 	N 	0.19789	0.39569	0.11352	-0.204
N 	N 	0.16181	0.29264	0.08526	-0.263
N 	N 	0.24479	0.38849	0.88242	-0.139
N 	N 	0.78131	0.24061	0.11378	-0.144
N 	N 	0.86822	0.3899	0.91724	-0.264
N 	N 	0.80299	0.68187	0.7503	-0.175
N 	N 	0.7736	0.69213	0.71524	-0.218
N 	N 	0.78054	0.71043	0.78652	-0.216
N 	N 	0.89569	0.68859	0.61352	-0.204
N 	N 	0.79264	0.75293	0.58526	-0.263
N 	N 	0.88849	0.87279	0.38242	-0.139
N 	N 	0.74061	0.10491	0.61378	-0.144
N 	N 	0.8899	0.21454	0.41724	-0.264
N 	N 	0.94671	0.56783	0.7503	-0.175
N 	N 	0.01116	0.59263	0.71524	-0.218
N 	N 	0.93294	0.50305	0.78652	-0.216
N 	N 	0.99079	0.69789	0.61352	-0.203
N 	N 	0.1221	0.66181	0.58526	-0.263
N 	N 	0.22909	0.74479	0.38242	-0.14
N 	N 	0.14561	0.28131	0.61378	-0.144
N 	N 	0.19286	0.36822	0.41724	-0.264
N 	N 	0.81813	0.55329	0.7497	-0.175
N 	N 	0.80787	0.48884	0.78476	-0.218
N 	N 	0.78957	0.56706	0.71348	-0.216
N 	N 	0.81141	0.50921	0.88648	-0.204
N 	N 	0.74707	0.3779	0.91474	-0.263
N 	N 	0.62721	0.27091	0.11758	-0.14
N 	N 	0.39509	0.35439	0.88622	-0.144
N 	N 	0.28546	0.30714	0.08276	-0.264
N 	N 	0.93217	0.69701	0.7497	-0.175
N 	N 	0.90737	0.7264	0.78476	-0.218
N 	N 	0.99695	0.71946	0.71348	-0.216
N 	N 	0.80211	0.60431	0.88648	-0.204
N 	N 	0.83819	0.70736	0.91474	-0.263
N 	N 	0.75521	0.61151	0.11758	-0.139
N 	N 	0.21869	0.75939	0.88622	-0.144
N 	N 	0.13178	0.6101	0.08276	-0.264
N 	N 	0.19701	0.31813	0.2497	-0.175
N 	N 	0.2264	0.30787	0.28476	-0.218
N 	N 	0.21946	0.28957	0.21348	-0.216
N 	N 	0.10431	0.31141	0.38648	-0.204
N 	N 	0.20736	0.24707	0.41474	-0.263
N 	N 	0.11151	0.12721	0.61758	-0.139
N 	N 	0.25939	0.89509	0.38622	-0.144
N 	N 	0.1101	0.78546	0.58276	-0.264
N 	N 	0.05329	0.43217	0.2497	-0.175
N 	N 	0.98884	0.40737	0.28476	-0.218
N 	N 	0.06706	0.49695	0.21348	-0.216
N 	N 	0.00921	0.30211	0.38648	-0.203
N 	N 	0.8779	0.33819	0.41474	-0.263
N 	N 	0.77091	0.25521	0.61758	-0.14
N 	N 	0.85439	0.71869	0.38622	-0.144
N 	N 	0.80714	0.63178	0.58276	-0.264
N 	N 	0.1755	0.4255	0.149	-0.174
N 	N 	0.9255	0.6755	0.649	-0.174
N 	N 	0.8245	0.5745	0.851	-0.174
N 	N 	0.0745	0.3245	0.351	-0.174
_end
