data_functionalizedCrystal
_audit_creation_method	'EQeq! by Chris Wilmer'
_symmetry_space_group_name_H-M	'P1'
_symmetry_Int_Tables_number	1
_symmetry_cell_setting	triclinic
loop_
_symmetry_equiv_pos_as_xyz
  x,y,z
_cell_length_a	13.102
_cell_length_b	26.104
_cell_length_c	26.279
_cell_angle_alpha	90
_cell_angle_beta	90
_cell_angle_gamma	93.923
loop_
_atom_site_label
_atom_site_type_symbol
_atom_site_fract_x
_atom_site_fract_y
_atom_site_fract_z
_atom_site_charge
Tb	Tb	0.52724	0.61657	0.70988	2.198
Tb	Tb	0.52724	0.11657	0.79012	2.198
V 	V 	0.86116	0.69552	0.20389	1.739
V 	V 	0.87917	0.57114	0.19337	1.742
V 	V 	0.06815	0.65156	0.1541	1.737
V 	V 	0.08573	0.5816	0.24461	1.747
V 	V 	0.06751	0.70543	0.25571	1.74
V 	V 	0.87879	0.62503	0.29497	1.732
V 	V 	0.86116	0.19552	0.29611	1.74
V 	V 	0.87917	0.07114	0.30663	1.743
V 	V 	0.06815	0.15156	0.3459	1.737
V 	V 	0.08573	0.0816	0.25539	1.746
V 	V 	0.06751	0.20543	0.24429	1.739
V 	V 	0.87879	0.12503	0.20503	1.732
H 	H 	0.9764	0.6729	0.3922	-0.033
H 	H 	0.0691	0.7113	0.3726	-0.035
H 	H 	0.2246	0.6767	0.3352	-0.041
H 	H 	0.234	0.6162	0.328	-0.041
H 	H 	0.091	0.5536	0.3621	-0.018
H 	H 	0.9893	0.5767	0.3843	-0.027
H 	H 	0.1494	0.6999	0.4399	0.048
H 	H 	0.2477	0.684	0.4089	0.052
H 	H 	0.8827	0.5633	0.0757	-0.041
H 	H 	0.9718	0.6043	0.0571	-0.044
H 	H 	0.9521	0.7014	0.0668	-0.033
H 	H 	0.8503	0.7202	0.0925	-0.037
H 	H 	0.7101	0.6565	0.1187	-0.029
H 	H 	0.7218	0.596	0.1156	-0.038
H 	H 	0.7497	0.7052	0.0122	0.06
H 	H 	0.6612	0.665	0.0336	0.06
H 	H 	0.758	0.7242	0.9354	0.061
H 	H 	0.7088	0.7046	0.8449	0.009
H 	H 	0.5919	0.5634	0.8678	0.032
H 	H 	0.6353	0.5753	0.9609	0.06
H 	H 	0.4585	0.6102	0.5229	0.032
H 	H 	0.3702	0.6332	0.4488	0.068
H 	H 	0.1511	0.6896	0.5363	0.062
H 	H 	0.2391	0.6668	0.6115	0.024
H 	H 	0.4149	0.7344	0.6798	-0.001
H 	H 	0.3863	0.8159	0.7047	0.04
H 	H 	0.6885	0.8431	0.7305	0.065
H 	H 	0.7115	0.7617	0.7034	0.01
H 	H 	0.633	0.0025	0.7677	0.017
H 	H 	0.661	0.9198	0.7348	0.029
H 	H 	0.3611	0.8809	0.749	0.055
H 	H 	0.3337	0.9607	0.7757	0.028
H 	H 	0.2858	0.6942	0.7384	-0.014
H 	H 	0.1116	0.6857	0.7259	0.066
H 	H 	0.1127	0.5343	0.7551	0.055
H 	H 	0.2869	0.5476	0.7733	-0.003
H 	H 	0.7793	0.6684	0.7218	0.003
H 	H 	0.948	0.6749	0.7468	0.035
H 	H 	0.974	0.5299	0.705	0.047
H 	H 	0.8086	0.5254	0.675	0.005
H 	H 	0.1374	0.6009	0.4394	0.102
H 	H 	0.8223	0.6139	0.0089	0.097
H 	H 	0.9764	0.1729	0.1078	-0.024
H 	H 	0.0691	0.2113	0.1274	-0.031
H 	H 	0.2246	0.1767	0.1648	-0.04
H 	H 	0.234	0.1162	0.172	-0.04
H 	H 	0.091	0.0536	0.1379	-0.014
H 	H 	0.9893	0.0767	0.1157	-0.018
H 	H 	0.1494	0.1999	0.0601	0.046
H 	H 	0.2477	0.184	0.0911	0.052
H 	H 	0.8827	0.0633	0.4243	-0.041
H 	H 	0.9718	0.1043	0.4429	-0.044
H 	H 	0.9521	0.2014	0.4332	-0.034
H 	H 	0.8503	0.2202	0.4075	-0.037
H 	H 	0.7101	0.1565	0.3813	-0.03
H 	H 	0.7218	0.096	0.3844	-0.039
H 	H 	0.7497	0.2052	0.4878	0.06
H 	H 	0.6612	0.165	0.4664	0.061
H 	H 	0.758	0.2242	0.5646	0.062
H 	H 	0.7088	0.2046	0.6551	0.008
H 	H 	0.5919	0.0634	0.6322	0.032
H 	H 	0.6353	0.0753	0.5391	0.061
H 	H 	0.4585	0.1102	0.9771	0.032
H 	H 	0.3702	0.1332	0.0512	0.068
H 	H 	0.1511	0.1896	0.9637	0.061
H 	H 	0.2391	0.1668	0.8885	0.024
H 	H 	0.4149	0.2344	0.8202	-0.001
H 	H 	0.3863	0.3159	0.7953	0.04
H 	H 	0.6885	0.3431	0.7695	0.065
H 	H 	0.7115	0.2617	0.7966	0.011
H 	H 	0.633	0.5025	0.7323	0.016
H 	H 	0.661	0.4198	0.7652	0.029
H 	H 	0.3611	0.3809	0.751	0.055
H 	H 	0.3337	0.4607	0.7243	0.027
H 	H 	0.2858	0.1942	0.7616	-0.014
H 	H 	0.1116	0.1857	0.7741	0.064
H 	H 	0.1127	0.0343	0.7449	0.053
H 	H 	0.2869	0.0476	0.7267	-0.003
H 	H 	0.7793	0.1684	0.7782	0.002
H 	H 	0.948	0.1749	0.7532	0.037
H 	H 	0.974	0.0299	0.795	0.048
H 	H 	0.8086	0.0254	0.825	0.004
H 	H 	0.1374	0.1009	0.0606	0.1
H 	H 	0.8223	0.1139	0.4911	0.096
C 	C 	0.0288	0.6787	0.3653	0.115
C 	C 	0.1862	0.6439	0.3263	0.161
C 	C 	0.1006	0.6331	0.3641	-0.126
C 	C 	0.0437	0.5814	0.3583	0.095
C 	C 	0.197	0.6726	0.4354	-0.086
C 	C 	0.9189	0.5969	0.0835	0.135
C 	C 	0.9006	0.6937	0.0938	0.124
C 	C 	0.8435	0.6386	0.0833	-0.126
C 	C 	0.7592	0.6295	0.1224	0.134
C 	C 	0.723	0.6688	0.0122	-0.104
C 	C 	0.7	0.6499	0.957	0.068
C 	C 	0.7258	0.6923	0.9246	-0.126
C 	C 	0.6949	0.6793	0.8704	0.046
C 	C 	0.6515	0.6365	0.8573	-0.126
C 	C 	0.624	0.5939	0.882	0.029
C 	C 	0.651	0.6025	0.938	-0.113
C 	C 	0.6175	0.6298	0.8053	0.331
C 	C 	0.4135	0.6239	0.6207	0.315
C 	C 	0.3579	0.6361	0.5731	-0.094
C 	C 	0.396	0.6264	0.5259	0.029
C 	C 	0.3428	0.6403	0.4813	-0.118
C 	C 	0.2521	0.6638	0.4846	0.072
C 	C 	0.2137	0.6735	0.5334	-0.118
C 	C 	0.2658	0.6599	0.5788	0.024
C 	C 	0.4709	0.757	0.6901	0.048
C 	C 	0.454	0.805	0.7054	-0.12
C 	C 	0.5305	0.8375	0.7213	0.053
C 	C 	0.6317	0.8209	0.7202	-0.132
C 	C 	0.6444	0.7734	0.7043	0.059
C 	C 	0.5149	0.8921	0.7376	0.027
C 	C 	0.5771	0.9777	0.7634	0.017
C 	C 	0.5937	0.9279	0.7437	-0.086
C 	C 	0.4174	0.9057	0.7516	-0.107
C 	C 	0.4018	0.9525	0.7685	0.026
C 	C 	0.2491	0.6621	0.7442	0.081
C 	C 	0.1465	0.6564	0.7352	-0.146
C 	C 	0.0923	0.6102	0.7393	0.065
C 	C 	0.1461	0.5677	0.7531	-0.134
C 	C 	0.2495	0.576	0.7638	0.061
C 	C 	0.8201	0.64	0.7178	0.042
C 	C 	0.9194	0.6438	0.7323	-0.109
C 	C 	0.9791	0.6029	0.7261	0.035
C 	C 	0.9352	0.5593	0.7072	-0.121
C 	C 	0.8369	0.5558	0.691	0.043
C 	C 	0.0288	0.1787	0.1347	0.097
C 	C 	0.1862	0.1439	0.1737	0.157
C 	C 	0.1006	0.1331	0.1359	-0.118
C 	C 	0.0437	0.0814	0.1417	0.076
C 	C 	0.197	0.1726	0.0646	-0.083
C 	C 	0.9189	0.0969	0.4165	0.136
C 	C 	0.9006	0.1937	0.4062	0.125
C 	C 	0.8435	0.1386	0.4167	-0.127
C 	C 	0.7592	0.1295	0.3776	0.134
C 	C 	0.723	0.1688	0.4878	-0.107
C 	C 	0.7	0.1499	0.543	0.072
C 	C 	0.7258	0.1923	0.5754	-0.127
C 	C 	0.6949	0.1793	0.6296	0.048
C 	C 	0.6515	0.1365	0.6427	-0.127
C 	C 	0.624	0.0939	0.618	0.03
C 	C 	0.651	0.1025	0.562	-0.115
C 	C 	0.6175	0.1298	0.6947	0.332
C 	C 	0.4135	0.1239	0.8793	0.315
C 	C 	0.3579	0.1361	0.9269	-0.094
C 	C 	0.396	0.1264	0.9741	0.031
C 	C 	0.3428	0.1403	0.0187	-0.119
C 	C 	0.2521	0.1638	0.0154	0.067
C 	C 	0.2137	0.1735	0.9666	-0.113
C 	C 	0.2658	0.1599	0.9212	0.022
C 	C 	0.4709	0.257	0.8099	0.048
C 	C 	0.454	0.305	0.7946	-0.12
C 	C 	0.5305	0.3375	0.7787	0.053
C 	C 	0.6317	0.3209	0.7798	-0.132
C 	C 	0.6444	0.2734	0.7957	0.059
C 	C 	0.5149	0.3921	0.7624	0.027
C 	C 	0.5771	0.4777	0.7366	0.018
C 	C 	0.5937	0.4279	0.7563	-0.087
C 	C 	0.4174	0.4057	0.7484	-0.107
C 	C 	0.4018	0.4525	0.7315	0.026
C 	C 	0.2491	0.1621	0.7558	0.079
C 	C 	0.1465	0.1564	0.7648	-0.143
C 	C 	0.0923	0.1102	0.7607	0.061
C 	C 	0.1461	0.0677	0.7469	-0.132
C 	C 	0.2495	0.076	0.7362	0.059
C 	C 	0.8201	0.14	0.7822	0.044
C 	C 	0.9194	0.1438	0.7677	-0.112
C 	C 	0.9791	0.1029	0.7739	0.04
C 	C 	0.9352	0.0593	0.7928	-0.124
C 	C 	0.8369	0.0558	0.809	0.044
N 	N 	0.1455	0.6286	0.4204	-0.148
N 	N 	0.7996	0.6365	0.0302	-0.144
N 	N 	0.7799	0.5963	0.698	-0.056
N 	N 	0.5647	0.7411	0.6894	-0.069
N 	N 	0.2976	0.6219	0.7611	-0.072
N 	N 	0.4802	0.9896	0.776	-0.043
N 	N 	0.1455	0.1286	0.0796	-0.15
N 	N 	0.7996	0.1365	0.4698	-0.143
N 	N 	0.7799	0.0963	0.802	-0.057
N 	N 	0.5647	0.2411	0.8106	-0.069
N 	N 	0.2976	0.1219	0.7389	-0.071
N 	N 	0.4802	0.4896	0.724	-0.043
O 	O 	0.9801	0.6812	0.3157	-0.68
O 	O 	0.9985	0.5805	0.3062	-0.666
O 	O 	0.1475	0.6471	0.2765	-0.687
O 	O 	0.8013	0.6718	0.2639	-0.779
O 	O 	0.9542	0.7386	0.2345	-0.792
O 	O 	0.8237	0.5706	0.2547	-0.792
O 	O 	0.9741	0.6375	0.2245	-1.05
O 	O 	0.1245	0.7044	0.1935	-0.791
O 	O 	0.9929	0.5381	0.2141	-0.782
O 	O 	0.1434	0.605	0.1855	-0.796
O 	O 	0.7971	0.63	0.1735	-0.68
O 	O 	0.9503	0.6955	0.1424	-0.685
O 	O 	0.9665	0.5948	0.1328	-0.678
O 	O 	0.6118	0.6661	0.7744	-0.465
O 	O 	0.5961	0.5837	0.7876	-0.433
O 	O 	0.3766	0.6357	0.6631	-0.441
O 	O 	0.4999	0.6043	0.6183	-0.412
O 	O 	0.6828	0.5915	0.6822	-0.365
O 	O 	0.5828	0.6955	0.6707	-0.337
O 	O 	0.3994	0.6281	0.7698	-0.352
O 	O 	0.4601	0.0332	0.7967	-0.37
O 	O 	0.9801	0.1812	0.1843	-0.674
O 	O 	0.9985	0.0805	0.1938	-0.661
O 	O 	0.1475	0.1471	0.2235	-0.687
O 	O 	0.8013	0.1718	0.2361	-0.779
O 	O 	0.9542	0.2386	0.2655	-0.791
O 	O 	0.8237	0.0706	0.2453	-0.792
O 	O 	0.9741	0.1375	0.2755	-1.049
O 	O 	0.1245	0.2044	0.3065	-0.792
O 	O 	0.9929	0.0381	0.2859	-0.781
O 	O 	0.1434	0.105	0.3145	-0.797
O 	O 	0.7971	0.13	0.3265	-0.68
O 	O 	0.9503	0.1955	0.3576	-0.685
O 	O 	0.9665	0.0948	0.3672	-0.678
O 	O 	0.6118	0.1661	0.7256	-0.465
O 	O 	0.5961	0.0837	0.7124	-0.433
O 	O 	0.3766	0.1357	0.8369	-0.441
O 	O 	0.4999	0.1043	0.8817	-0.412
O 	O 	0.6828	0.0915	0.8178	-0.365
O 	O 	0.5828	0.1955	0.8293	-0.338
O 	O 	0.3994	0.1281	0.7302	-0.352
O 	O 	0.4601	0.5332	0.7033	-0.369
Tb	Tb	0.47276	0.88343	0.20988	2.199
Tb	Tb	0.47276	0.38343	0.29012	2.199
V 	V 	0.13884	0.80448	0.70389	1.74
V 	V 	0.12083	0.92886	0.69337	1.743
V 	V 	0.93185	0.84844	0.6541	1.737
V 	V 	0.91427	0.9184	0.74461	1.746
V 	V 	0.93249	0.79457	0.75571	1.739
V 	V 	0.12121	0.87497	0.79497	1.732
V 	V 	0.13884	0.30448	0.79611	1.74
V 	V 	0.12083	0.42886	0.80663	1.743
V 	V 	0.93185	0.34844	0.8459	1.737
V 	V 	0.91427	0.4184	0.75539	1.747
V 	V 	0.93249	0.29457	0.74429	1.74
V 	V 	0.12121	0.37497	0.70503	1.732
H 	H 	0.0236	0.8271	0.8922	-0.024
H 	H 	0.9309	0.7887	0.8726	-0.031
H 	H 	0.7754	0.8233	0.8352	-0.04
H 	H 	0.766	0.8838	0.828	-0.04
H 	H 	0.909	0.9464	0.8621	-0.014
H 	H 	0.0107	0.9233	0.8843	-0.018
H 	H 	0.8506	0.8001	0.9399	0.046
H 	H 	0.7523	0.816	0.9089	0.052
H 	H 	0.1173	0.9367	0.5757	-0.041
H 	H 	0.0282	0.8957	0.5571	-0.044
H 	H 	0.0479	0.7986	0.5668	-0.034
H 	H 	0.1497	0.7798	0.5925	-0.037
H 	H 	0.2899	0.8435	0.6187	-0.03
H 	H 	0.2782	0.904	0.6156	-0.039
H 	H 	0.2503	0.7948	0.5122	0.06
H 	H 	0.3388	0.835	0.5336	0.061
H 	H 	0.242	0.7758	0.4354	0.062
H 	H 	0.2912	0.7954	0.3449	0.008
H 	H 	0.4081	0.9366	0.3678	0.032
H 	H 	0.3647	0.9247	0.4609	0.061
H 	H 	0.5415	0.8898	0.0229	0.032
H 	H 	0.6298	0.8668	0.9488	0.068
H 	H 	0.8489	0.8104	0.0363	0.061
H 	H 	0.7609	0.8332	0.1115	0.024
H 	H 	0.5851	0.7656	0.1798	-0.001
H 	H 	0.6137	0.6841	0.2047	0.04
H 	H 	0.3115	0.6569	0.2305	0.065
H 	H 	0.2885	0.7383	0.2034	0.011
H 	H 	0.367	0.4975	0.2677	0.016
H 	H 	0.339	0.5802	0.2348	0.029
H 	H 	0.6389	0.6191	0.249	0.055
H 	H 	0.6663	0.5393	0.2757	0.027
H 	H 	0.7142	0.8058	0.2384	-0.014
H 	H 	0.8884	0.8143	0.2259	0.064
H 	H 	0.8873	0.9657	0.2551	0.053
H 	H 	0.7131	0.9524	0.2733	-0.003
H 	H 	0.2207	0.8316	0.2218	0.002
H 	H 	0.052	0.8251	0.2468	0.037
H 	H 	0.026	0.9701	0.205	0.048
H 	H 	0.1914	0.9746	0.175	0.004
H 	H 	0.8626	0.8991	0.9394	0.1
H 	H 	0.1777	0.8861	0.5089	0.096
H 	H 	0.0236	0.3271	0.6078	-0.033
H 	H 	0.9309	0.2887	0.6274	-0.035
H 	H 	0.7754	0.3233	0.6648	-0.041
H 	H 	0.766	0.3838	0.672	-0.041
H 	H 	0.909	0.4464	0.6379	-0.018
H 	H 	0.0107	0.4233	0.6157	-0.027
H 	H 	0.8506	0.3001	0.5601	0.048
H 	H 	0.7523	0.316	0.5911	0.052
H 	H 	0.1173	0.4367	0.9243	-0.041
H 	H 	0.0282	0.3957	0.9429	-0.044
H 	H 	0.0479	0.2986	0.9332	-0.033
H 	H 	0.1497	0.2798	0.9075	-0.037
H 	H 	0.2899	0.3435	0.8813	-0.029
H 	H 	0.2782	0.404	0.8844	-0.038
H 	H 	0.2503	0.2948	0.9878	0.06
H 	H 	0.3388	0.335	0.9664	0.06
H 	H 	0.242	0.2758	0.0646	0.061
H 	H 	0.2912	0.2954	0.1551	0.009
H 	H 	0.4081	0.4366	0.1322	0.032
H 	H 	0.3647	0.4247	0.0391	0.06
H 	H 	0.5415	0.3898	0.4771	0.032
H 	H 	0.6298	0.3668	0.5512	0.068
H 	H 	0.8489	0.3104	0.4637	0.062
H 	H 	0.7609	0.3332	0.3885	0.024
H 	H 	0.5851	0.2656	0.3202	-0.001
H 	H 	0.6137	0.1841	0.2953	0.04
H 	H 	0.3115	0.1569	0.2695	0.065
H 	H 	0.2885	0.2383	0.2966	0.01
H 	H 	0.367	0.9975	0.2323	0.017
H 	H 	0.339	0.0802	0.2652	0.029
H 	H 	0.6389	0.1191	0.251	0.055
H 	H 	0.6663	0.0393	0.2243	0.028
H 	H 	0.7142	0.3058	0.2616	-0.014
H 	H 	0.8884	0.3143	0.2741	0.066
H 	H 	0.8873	0.4657	0.2449	0.055
H 	H 	0.7131	0.4524	0.2267	-0.003
H 	H 	0.2207	0.3316	0.2782	0.003
H 	H 	0.052	0.3251	0.2532	0.035
H 	H 	0.026	0.4701	0.295	0.047
H 	H 	0.1914	0.4746	0.325	0.005
H 	H 	0.8626	0.3991	0.5606	0.102
H 	H 	0.1777	0.3861	0.9911	0.097
C 	C 	0.9712	0.8213	0.8653	0.097
C 	C 	0.8138	0.8561	0.8263	0.157
C 	C 	0.8994	0.8669	0.8641	-0.118
C 	C 	0.9563	0.9186	0.8583	0.076
C 	C 	0.803	0.8274	0.9354	-0.083
C 	C 	0.0811	0.9031	0.5835	0.136
C 	C 	0.0994	0.8063	0.5938	0.125
C 	C 	0.1565	0.8614	0.5833	-0.127
C 	C 	0.2408	0.8705	0.6224	0.134
C 	C 	0.277	0.8312	0.5122	-0.107
C 	C 	0.3	0.8501	0.457	0.072
C 	C 	0.2742	0.8077	0.4246	-0.127
C 	C 	0.3051	0.8207	0.3704	0.048
C 	C 	0.3485	0.8635	0.3573	-0.127
C 	C 	0.376	0.9061	0.382	0.03
C 	C 	0.349	0.8975	0.438	-0.115
C 	C 	0.3825	0.8702	0.3053	0.332
C 	C 	0.5865	0.8761	0.1207	0.315
C 	C 	0.6421	0.8639	0.0731	-0.094
C 	C 	0.604	0.8736	0.0259	0.031
C 	C 	0.6572	0.8597	0.9813	-0.119
C 	C 	0.7479	0.8362	0.9846	0.067
C 	C 	0.7863	0.8265	0.0334	-0.113
C 	C 	0.7342	0.8401	0.0788	0.022
C 	C 	0.5291	0.743	0.1901	0.048
C 	C 	0.546	0.695	0.2054	-0.12
C 	C 	0.4695	0.6625	0.2213	0.053
C 	C 	0.3683	0.6791	0.2202	-0.132
C 	C 	0.3556	0.7266	0.2043	0.059
C 	C 	0.4851	0.6079	0.2376	0.027
C 	C 	0.4229	0.5223	0.2634	0.018
C 	C 	0.4063	0.5721	0.2437	-0.087
C 	C 	0.5826	0.5943	0.2516	-0.107
C 	C 	0.5982	0.5475	0.2685	0.026
C 	C 	0.7509	0.8379	0.2442	0.079
C 	C 	0.8535	0.8436	0.2352	-0.143
C 	C 	0.9077	0.8898	0.2393	0.061
C 	C 	0.8539	0.9323	0.2531	-0.132
C 	C 	0.7505	0.924	0.2638	0.059
C 	C 	0.1799	0.86	0.2178	0.044
C 	C 	0.0806	0.8562	0.2323	-0.112
C 	C 	0.0209	0.8971	0.2261	0.04
C 	C 	0.0648	0.9407	0.2072	-0.124
C 	C 	0.1631	0.9442	0.191	0.044
C 	C 	0.9712	0.3213	0.6347	0.115
C 	C 	0.8138	0.3561	0.6737	0.161
C 	C 	0.8994	0.3669	0.6359	-0.126
C 	C 	0.9563	0.4186	0.6417	0.095
C 	C 	0.803	0.3274	0.5646	-0.086
C 	C 	0.0811	0.4031	0.9165	0.135
C 	C 	0.0994	0.3063	0.9062	0.124
C 	C 	0.1565	0.3614	0.9167	-0.126
C 	C 	0.2408	0.3705	0.8776	0.134
C 	C 	0.277	0.3312	0.9878	-0.104
C 	C 	0.3	0.3501	0.043	0.068
C 	C 	0.2742	0.3077	0.0754	-0.126
C 	C 	0.3051	0.3207	0.1296	0.046
C 	C 	0.3485	0.3635	0.1427	-0.126
C 	C 	0.376	0.4061	0.118	0.029
C 	C 	0.349	0.3975	0.062	-0.113
C 	C 	0.3825	0.3702	0.1947	0.331
C 	C 	0.5865	0.3761	0.3793	0.315
C 	C 	0.6421	0.3639	0.4269	-0.094
C 	C 	0.604	0.3736	0.4741	0.029
C 	C 	0.6572	0.3597	0.5187	-0.118
C 	C 	0.7479	0.3362	0.5154	0.072
C 	C 	0.7863	0.3265	0.4666	-0.118
C 	C 	0.7342	0.3401	0.4212	0.024
C 	C 	0.5291	0.243	0.3099	0.048
C 	C 	0.546	0.195	0.2946	-0.12
C 	C 	0.4695	0.1625	0.2787	0.053
C 	C 	0.3683	0.1791	0.2798	-0.132
C 	C 	0.3556	0.2266	0.2957	0.059
C 	C 	0.4851	0.1079	0.2624	0.027
C 	C 	0.4229	0.0223	0.2366	0.017
C 	C 	0.4063	0.0721	0.2563	-0.086
C 	C 	0.5826	0.0943	0.2484	-0.107
C 	C 	0.5982	0.0475	0.2315	0.026
C 	C 	0.7509	0.3379	0.2558	0.081
C 	C 	0.8535	0.3436	0.2648	-0.146
C 	C 	0.9077	0.3898	0.2607	0.065
C 	C 	0.8539	0.4323	0.2469	-0.134
C 	C 	0.7505	0.424	0.2362	0.061
C 	C 	0.1799	0.36	0.2822	0.042
C 	C 	0.0806	0.3562	0.2677	-0.109
C 	C 	0.0209	0.3971	0.2739	0.035
C 	C 	0.0648	0.4407	0.2928	-0.121
C 	C 	0.1631	0.4442	0.309	0.043
N 	N 	0.8545	0.8714	0.9204	-0.15
N 	N 	0.2004	0.8635	0.5302	-0.143
N 	N 	0.2201	0.9037	0.198	-0.057
N 	N 	0.4353	0.7589	0.1894	-0.069
N 	N 	0.7024	0.8781	0.2611	-0.071
N 	N 	0.5198	0.5104	0.276	-0.043
N 	N 	0.8545	0.3714	0.5796	-0.148
N 	N 	0.2004	0.3635	0.9698	-0.144
N 	N 	0.2201	0.4037	0.302	-0.056
N 	N 	0.4353	0.2589	0.3106	-0.069
N 	N 	0.7024	0.3781	0.2389	-0.072
N 	N 	0.5198	0.0104	0.224	-0.043
O 	O 	0.0199	0.8188	0.8157	-0.674
O 	O 	0.0015	0.9195	0.8062	-0.661
O 	O 	0.8525	0.8529	0.7765	-0.687
O 	O 	0.1987	0.8282	0.7639	-0.779
O 	O 	0.0458	0.7614	0.7345	-0.791
O 	O 	0.1763	0.9294	0.7547	-0.792
O 	O 	0.0259	0.8625	0.7245	-1.049
O 	O 	0.8755	0.7956	0.6935	-0.792
O 	O 	0.0071	0.9619	0.7141	-0.781
O 	O 	0.8566	0.895	0.6855	-0.797
O 	O 	0.2029	0.87	0.6735	-0.68
O 	O 	0.0497	0.8045	0.6424	-0.685
O 	O 	0.0335	0.9052	0.6328	-0.678
O 	O 	0.3882	0.8339	0.2744	-0.465
O 	O 	0.4039	0.9163	0.2876	-0.433
O 	O 	0.6234	0.8643	0.1631	-0.441
O 	O 	0.5001	0.8957	0.1183	-0.412
O 	O 	0.3172	0.9085	0.1822	-0.365
O 	O 	0.4172	0.8045	0.1707	-0.338
O 	O 	0.6006	0.8719	0.2698	-0.352
O 	O 	0.5399	0.4668	0.2967	-0.369
O 	O 	0.0199	0.3188	0.6843	-0.68
O 	O 	0.0015	0.4195	0.6938	-0.666
O 	O 	0.8525	0.3529	0.7235	-0.687
O 	O 	0.1987	0.3282	0.7361	-0.779
O 	O 	0.0458	0.2614	0.7655	-0.792
O 	O 	0.1763	0.4294	0.7453	-0.792
O 	O 	0.0259	0.3625	0.7755	-1.05
O 	O 	0.8755	0.2956	0.8065	-0.791
O 	O 	0.0071	0.4619	0.7859	-0.782
O 	O 	0.8566	0.395	0.8145	-0.796
O 	O 	0.2029	0.37	0.8265	-0.68
O 	O 	0.0497	0.3045	0.8576	-0.685
O 	O 	0.0335	0.4052	0.8672	-0.678
O 	O 	0.3882	0.3339	0.2256	-0.465
O 	O 	0.4039	0.4163	0.2124	-0.433
O 	O 	0.6234	0.3643	0.3369	-0.441
O 	O 	0.5001	0.3957	0.3817	-0.412
O 	O 	0.3172	0.4085	0.3178	-0.365
O 	O 	0.4172	0.3045	0.3293	-0.337
O 	O 	0.6006	0.3719	0.2302	-0.352
O 	O 	0.5399	0.9668	0.2033	-0.37
_end
