data_functionalizedCrystal
_audit_creation_method	'EQeq! by Chris Wilmer'
_symmetry_space_group_name_H-M	'P1'
_symmetry_Int_Tables_number	1
_symmetry_cell_setting	triclinic
loop_
_symmetry_equiv_pos_as_xyz
  x,y,z
_cell_length_a	26.136
_cell_length_b	26.136
_cell_length_c	6.942
_cell_angle_alpha	90
_cell_angle_beta	90
_cell_angle_gamma	120
loop_
_atom_site_label
_atom_site_type_symbol
_atom_site_fract_x
_atom_site_fract_y
_atom_site_fract_z
_atom_site_charge
Mg	Mg	0.64159	0.68514	0.47189	1.472
O 	O 	0.96943	0.29776	0.36038	-0.706
O 	O 	0.92763	0.23048	0.6102	-0.505
O 	O 	0.25494	0.94205	0.67383	-0.647
C 	C 	0.92667	0.2458	0.42703	0.382
C 	C 	0.87918	0.20711	0.29083	-0.174
C 	C 	0.21254	0.88926	0.7549	0.2
C 	C 	0.1663	0.84759	0.63558	-0.071
H 	H 	0.16529	0.85803	0.47918	0.059
Mg	Mg	0.31486	0.95645	0.47189	1.472
O 	O 	0.70224	0.67167	0.36038	-0.706
O 	O 	0.76952	0.69715	0.6102	-0.506
O 	O 	0.05795	0.31289	0.67383	-0.648
C 	C 	0.7542	0.68087	0.42703	0.381
C 	C 	0.79289	0.67207	0.29083	-0.176
C 	C 	0.11074	0.32328	0.7549	0.199
C 	C 	0.15241	0.31871	0.63558	-0.072
H 	H 	0.14197	0.30726	0.47918	0.058
Mg	Mg	0.04355	0.35841	0.47189	1.471
O 	O 	0.32833	0.03057	0.36038	-0.707
O 	O 	0.30285	0.07237	0.6102	-0.507
O 	O 	0.68711	0.74506	0.67383	-0.648
C 	C 	0.31913	0.07333	0.42703	0.381
C 	C 	0.32793	0.12082	0.29083	-0.176
C 	C 	0.67672	0.78746	0.7549	0.199
C 	C 	0.68129	0.8337	0.63558	-0.072
H 	H 	0.69274	0.83471	0.47918	0.058
Mg	Mg	0.35841	0.31486	0.52811	1.471
O 	O 	0.03057	0.70224	0.63962	-0.707
O 	O 	0.07237	0.76952	0.3898	-0.506
O 	O 	0.74506	0.05795	0.32617	-0.648
C 	C 	0.07333	0.7542	0.57297	0.381
C 	C 	0.12082	0.79289	0.70917	-0.175
C 	C 	0.78746	0.11074	0.2451	0.199
C 	C 	0.8337	0.15241	0.36442	-0.072
H 	H 	0.83471	0.14197	0.52082	0.058
Mg	Mg	0.68514	0.04355	0.52811	1.471
O 	O 	0.29776	0.32833	0.63962	-0.707
O 	O 	0.23048	0.30285	0.3898	-0.507
O 	O 	0.94205	0.68711	0.32617	-0.648
C 	C 	0.2458	0.31913	0.57297	0.381
C 	C 	0.20711	0.32793	0.70917	-0.176
C 	C 	0.88926	0.67672	0.2451	0.199
C 	C 	0.84759	0.68129	0.36442	-0.072
H 	H 	0.85803	0.69274	0.52082	0.058
Mg	Mg	0.95645	0.64159	0.52811	1.471
O 	O 	0.67167	0.96943	0.63962	-0.707
O 	O 	0.69715	0.92763	0.3898	-0.507
O 	O 	0.31289	0.25494	0.32617	-0.648
C 	C 	0.68087	0.92667	0.57297	0.381
C 	C 	0.67207	0.87918	0.70917	-0.176
C 	C 	0.32328	0.21254	0.2451	0.199
C 	C 	0.31871	0.1663	0.36442	-0.072
H 	H 	0.30726	0.16529	0.52082	0.058
Mg	Mg	0.308257	0.0184733	0.805223	1.471
O 	O 	0.636097	0.631093	0.693713	-0.707
O 	O 	0.594297	0.563813	0.943533	-0.507
O 	O 	0.921607	0.275383	0.00716333	-0.648
C 	C 	0.593337	0.579133	0.760363	0.381
C 	C 	0.545847	0.540443	0.624163	-0.176
C 	C 	0.879207	0.222593	0.0882333	0.198
C 	C 	0.832967	0.180923	0.968913	-0.07
H 	H 	0.831957	0.191363	0.812513	0.058
Mg	Mg	0.981527	0.289783	0.805223	1.471
O 	O 	0.368907	0.00500333	0.693713	-0.707
O 	O 	0.436187	0.0304833	0.943533	-0.507
O 	O 	0.724617	0.646223	0.00716333	-0.648
C 	C 	0.420867	0.0142033	0.760363	0.381
C 	C 	0.459557	0.00540333	0.624163	-0.176
C 	C 	0.777407	0.656613	0.0882333	0.199
C 	C 	0.819077	0.652043	0.968913	-0.071
H 	H 	0.808637	0.640593	0.812513	0.058
Mg	Mg	0.710217	0.691743	0.805223	1.471
O 	O 	0.994997	0.363903	0.693713	-0.707
O 	O 	0.969517	0.405703	0.943533	-0.507
O 	O 	0.353777	0.0783933	0.00716333	-0.648
C 	C 	0.985797	0.406663	0.760363	0.381
C 	C 	0.994597	0.454153	0.624163	-0.176
C 	C 	0.343387	0.120793	0.0882333	0.199
C 	C 	0.347957	0.167033	0.968913	-0.071
H 	H 	0.359407	0.168043	0.812513	0.058
Mg	Mg	0.0250767	0.648193	0.861443	1.471
O 	O 	0.697237	0.0355733	0.972953	-0.707
O 	O 	0.739037	0.102853	0.723133	-0.507
O 	O 	0.411727	0.391283	0.659503	-0.648
C 	C 	0.739997	0.0875333	0.906303	0.382
C 	C 	0.787487	0.126223	0.0425033	-0.178
C 	C 	0.454127	0.444073	0.578433	0.199
C 	C 	0.500367	0.485743	0.697753	-0.072
H 	H 	0.501377	0.475303	0.854153	0.058
Mg	Mg	0.351807	0.376883	0.861443	1.471
O 	O 	0.964427	0.661663	0.972953	-0.707
O 	O 	0.897147	0.636183	0.723133	-0.507
O 	O 	0.608717	0.0204433	0.659503	-0.648
C 	C 	0.912467	0.652463	0.906303	0.381
C 	C 	0.873777	0.661263	0.0425033	-0.177
C 	C 	0.555927	0.0100533	0.578433	0.199
C 	C 	0.514257	0.0146233	0.697753	-0.072
H 	H 	0.524697	0.0260733	0.854153	0.058
Mg	Mg	0.623117	0.974923	0.861443	1.471
O 	O 	0.338337	0.302763	0.972953	-0.707
O 	O 	0.363817	0.260963	0.723133	-0.507
O 	O 	0.979557	0.588273	0.659503	-0.648
C 	C 	0.347537	0.260003	0.906303	0.381
C 	C 	0.338737	0.212513	0.0425033	-0.176
C 	C 	0.989947	0.545873	0.578433	0.199
C 	C 	0.985377	0.499633	0.697753	-0.072
H 	H 	0.973927	0.498623	0.854153	0.058
Mg	Mg	0.974923	0.351807	0.138557	1.471
O 	O 	0.302763	0.964427	0.0270467	-0.707
O 	O 	0.260963	0.897147	0.276867	-0.507
O 	O 	0.588273	0.608717	0.340497	-0.648
C 	C 	0.260003	0.912467	0.0936967	0.382
C 	C 	0.212513	0.873777	0.957497	-0.178
C 	C 	0.545873	0.555927	0.421567	0.199
C 	C 	0.499633	0.514257	0.302247	-0.072
H 	H 	0.498623	0.524697	0.145847	0.058
Mg	Mg	0.648193	0.623117	0.138557	1.471
O 	O 	0.0355733	0.338337	0.0270467	-0.707
O 	O 	0.102853	0.363817	0.276867	-0.507
O 	O 	0.391283	0.979557	0.340497	-0.648
C 	C 	0.0875333	0.347537	0.0936967	0.381
C 	C 	0.126223	0.338737	0.957497	-0.177
C 	C 	0.444073	0.989947	0.421567	0.199
C 	C 	0.485743	0.985377	0.302247	-0.072
H 	H 	0.475303	0.973927	0.145847	0.058
Mg	Mg	0.376883	0.0250767	0.138557	1.471
O 	O 	0.661663	0.697237	0.0270467	-0.707
O 	O 	0.636183	0.739037	0.276867	-0.507
O 	O 	0.0204433	0.411727	0.340497	-0.648
C 	C 	0.652463	0.739997	0.0936967	0.381
C 	C 	0.661263	0.787487	0.957497	-0.176
C 	C 	0.0100533	0.454127	0.421567	0.199
C 	C 	0.0146233	0.500367	0.302247	-0.072
H 	H 	0.0260733	0.501377	0.145847	0.058
Mg	Mg	0.691743	0.981527	0.194777	1.471
O 	O 	0.363903	0.368907	0.306287	-0.707
O 	O 	0.405703	0.436187	0.0564667	-0.507
O 	O 	0.0783933	0.724617	0.992837	-0.648
C 	C 	0.406663	0.420867	0.239637	0.381
C 	C 	0.454153	0.459557	0.375837	-0.176
C 	C 	0.120793	0.777407	0.911767	0.198
C 	C 	0.167033	0.819077	0.0310867	-0.07
H 	H 	0.168043	0.808637	0.187487	0.058
Mg	Mg	0.0184733	0.710217	0.194777	1.471
O 	O 	0.631093	0.994997	0.306287	-0.707
O 	O 	0.563813	0.969517	0.0564667	-0.507
O 	O 	0.275383	0.353777	0.992837	-0.648
C 	C 	0.579133	0.985797	0.239637	0.381
C 	C 	0.540443	0.994597	0.375837	-0.176
C 	C 	0.222593	0.343387	0.911767	0.199
C 	C 	0.180923	0.347957	0.0310867	-0.071
H 	H 	0.191363	0.359407	0.187487	0.058
Mg	Mg	0.289783	0.308257	0.194777	1.471
O 	O 	0.00500333	0.636097	0.306287	-0.707
O 	O 	0.0304833	0.594297	0.0564667	-0.507
O 	O 	0.646223	0.921607	0.992837	-0.648
C 	C 	0.0142033	0.593337	0.239637	0.381
C 	C 	0.00540333	0.545847	0.375837	-0.176
C 	C 	0.656613	0.879207	0.911767	0.199
C 	C 	0.652043	0.832967	0.0310867	-0.071
H 	H 	0.640593	0.831957	0.187487	0.058
_end
