# CIF file generated by openbabel 2.3.2, see http://openbabel.sf.net
data_I
_chemical_name_common ''
_cell_length_a 17.8348
_cell_length_b 17.8348
_cell_length_c 17.8348
_cell_angle_alpha 90
_cell_angle_beta 90
_cell_angle_gamma 90
_space_group_name_H-M_alt 'P n -3'
_space_group_name_Hall 'P 2 2 3 -1n'
loop_
    _symmetry_equiv_pos_as_xyz
    'x,y,z'
    '-x,-y,z'
    '-x,y,-z'
    'x,-y,-z'
    'z,x,y'
    'z,-x,-y'
    '-z,-x,y'
    '-z,x,-y'
    'y,z,x'
    '-y,z,-x'
    'y,-z,-x'
    '-y,-z,x'
    '1/2-x,1/2-y,1/2-z'
    '1/2+x,1/2+y,1/2-z'
    '1/2+x,1/2-y,1/2+z'
    '1/2-x,1/2+y,1/2+z'
    '1/2-z,1/2-x,1/2-y'
    '1/2-z,1/2+x,1/2+y'
    '1/2+z,1/2+x,1/2-y'
    '1/2+z,1/2-x,1/2+y'
    '1/2-y,1/2-z,1/2-x'
    '1/2+y,1/2-z,1/2+x'
    '1/2-y,1/2+z,1/2+x'
    '1/2+y,1/2+z,1/2-x'
loop_
    _atom_site_type_symbol
    _atom_site_label
    _atom_site_Cartn_x
    _atom_site_Cartn_y
    _atom_site_Cartn_z
     Zr   Zr1     2.45853    9.11590    0.21188
     Zr   Zr2    15.37627    8.71890    0.21188
     Zr   Zr3    15.37627    9.11590   17.62292
     Zr   Zr4     2.45853    8.71890   17.62292
     Zr   Zr5     0.21188    2.45853    9.11590
     Zr   Zr6     0.21188   15.37627    8.71890
     Zr   Zr7    17.62292   15.37627    9.11590
     Zr   Zr8    17.62292    2.45853    8.71890
     Zr   Zr9     9.11590    0.21188    2.45853
     Zr   Zr10     8.71890    0.21188   15.37627
     Zr   Zr11     9.11590   17.62292   15.37627
     Zr   Zr12     8.71890   17.62292    2.45853
     Zr   Zr13     6.45887   17.63630    8.70552
     Zr   Zr14    11.37593    0.19850    8.70552
     Zr   Zr15    11.37593   17.63630    9.12928
     Zr   Zr16     6.45887    0.19850    9.12928
     Zr   Zr17     8.70552    6.45887   17.63630
     Zr   Zr18     8.70552   11.37593    0.19850
     Zr   Zr19     9.12928   11.37593   17.63630
     Zr   Zr20     9.12928    6.45887    0.19850
     Zr   Zr21    17.63630    8.70552    6.45887
     Zr   Zr22     0.19850    8.70552   11.37593
     Zr   Zr23    17.63630    9.12928   11.37593
     Zr   Zr24     0.19850    9.12928    6.45887
      O    O25     3.72747    7.28552    0.14268
      O    O26    14.10733   10.54928    0.14268
      O    O27    14.10733    7.28552   17.69212
      O    O28     3.72747   10.54928   17.69212
      O    O29     0.14268    3.72747    7.28552
      O    O30     0.14268   14.10733   10.54928
      O    O31    17.69212   14.10733    7.28552
      O    O32    17.69212    3.72747   10.54928
      O    O33     7.28552    0.14268    3.72747
      O    O34    10.54928    0.14268   14.10733
      O    O35     7.28551   17.69212   14.10733
      O    O36    10.54928   17.69212    3.72747
      O    O37     5.18993    1.63188    8.77472
      O    O38    12.64487   16.20292    8.77472
      O    O39    12.64487    1.63188    9.06008
      O    O40     5.18993   16.20292    9.06008
      O    O41     8.77472    5.18993    1.63188
      O    O42     8.77472   12.64487   16.20292
      O    O43     9.06008   12.64487    1.63188
      O    O44     9.06008    5.18993   16.20292
      O    O45     1.63188    8.77472    5.18993
      O    O46    16.20292    8.77472   12.64487
      O    O47     1.63188    9.06008   12.64487
      O    O48    16.20292    9.06008    5.18993
      O    O49     3.39575   11.13962    0.43874
      O    O50    14.43905    6.69518    0.43874
      O    O51    14.43905   11.13962   17.39606
      O    O52     3.39575    6.69518   17.39606
      O    O53     0.43874    3.39575   11.13962
      O    O54     0.43874   14.43905    6.69518
      O    O55    17.39606   14.43905   11.13962
      O    O56    17.39606    3.39575    6.69518
      O    O57    11.13962    0.43874    3.39575
      O    O58     6.69518    0.43874   14.43905
      O    O59    11.13962   17.39606   14.43905
      O    O60     6.69518   17.39606    3.39575
      O    O61     5.52165   15.61258    8.47866
      O    O62    12.31315    2.22222    8.47866
      O    O63    12.31315   15.61258    9.35614
      O    O64     5.52165    2.22222    9.35614
      O    O65     8.47866    5.52165   15.61258
      O    O66     8.47866   12.31315    2.22222
      O    O67     9.35614   12.31315   15.61258
      O    O68     9.35614    5.52165    2.22222
      O    O69    15.61258    8.47866    5.52165
      O    O70     2.22222    8.47866   12.31315
      O    O71    15.61258    9.35614   12.31315
      O    O72     2.22222    9.35614    5.52165
      O    O73     3.38148    9.04759    2.25254
      O    O74    14.45332    8.78721    2.25254
      O    O75    14.45332    9.04759   15.58227
      O    O76     3.38148    8.78721   15.58227
      O    O77     2.25253    3.38148    9.04759
      O    O78     2.25253   14.45332    8.78721
      O    O79    15.58226   14.45332    9.04759
      O    O80    15.58226    3.38148    8.78721
      O    O81     9.04759    2.25254    3.38148
      O    O82     8.78721    2.25253   14.45332
      O    O83     9.04759   15.58226   14.45332
      O    O84     8.78721   15.58227    3.38148
      O    O85     5.53592   17.70461    6.66487
      O    O86    12.29888    0.13019    6.66487
      O    O87    12.29888   17.70461   11.16994
      O    O88     5.53592    0.13019   11.16994
      O    O89     6.66486    5.53592   17.70461
      O    O90     6.66486   12.29888    0.13019
      O    O91    11.16993   12.29888   17.70461
      O    O92    11.16994    5.53592    0.13019
      O    O93    17.70461    6.66486    5.53592
      O    O94     0.13019    6.66486   12.29888
      O    O95    17.70461   11.16994   12.29888
      O    O96     0.13019   11.16994    5.53592
      O    O97     3.72391    9.34365   16.21897
      O    O98    14.11089    8.49115   16.21897
      O    O99    14.11089    9.34365    1.61583
      O    O100     3.72391    8.49115    1.61583
      O    O101    16.21897    3.72391    9.34365
      O    O102    16.21897   14.11089    8.49115
      O    O103     1.61583   14.11089    9.34365
      O    O104     1.61583    3.72391    8.49115
      O    O105     9.34365   16.21897    3.72391
      O    O106     8.49115   16.21897   14.11089
      O    O107     9.34365    1.61583   14.11089
      O    O108     8.49115    1.61583    3.72391
      O    O109     5.19349   17.40855   10.53323
      O    O110    12.64131    0.42625   10.53323
      O    O111    12.64131   17.40855    7.30157
      O    O112     5.19349    0.42625    7.30157
      O    O113    10.53323    5.19349   17.40855
      O    O114    10.53323   12.64131    0.42625
      O    O115     7.30157   12.64131   17.40855
      O    O116     7.30157    5.19349    0.42625
      O    O117    17.40855   10.53323    5.19349
      O    O118     0.42625   10.53323   12.64131
      O    O119    17.40855    7.30157   12.64131
      O    O120     0.42625    7.30157    5.19349
      C    C121     2.86070   12.28996    0.42804
      C    C122    14.97410    5.54484    0.42804
      C    C123    14.97410   12.28996   17.40677
      C    C124     2.86070    5.54484   17.40677
      C    C125     0.42803    2.86070   12.28996
      C    C126     0.42803   14.97410    5.54484
      C    C127    17.40676   14.97410   12.28996
      C    C128    17.40677    2.86070    5.54484
      C    C129    12.28996    0.42804    2.86070
      C    C130     5.54484    0.42803   14.97410
      C    C131    12.28996   17.40676   14.97410
      C    C132     5.54484   17.40677    2.86070
      C    C133     6.05670   14.46224    8.48937
      C    C134    11.77810    3.37256    8.48937
      C    C135    11.77810   14.46224    9.34544
      C    C136     6.05670    3.37256    9.34544
      C    C137     8.48936    6.05670   14.46224
      C    C138     8.48936   11.77810    3.37256
      C    C139     9.34543   11.77810   14.46224
      C    C140     9.34544    6.05670    3.37256
      C    C141    14.46224    8.48936    6.05670
      C    C142     3.37256    8.48936   11.77810
      C    C143    14.46224    9.34544   11.77810
      C    C144     3.37256    9.34544    6.05670
      C    C145     3.82021   13.47419    0.43339
      C    C146    14.01459    4.36061    0.43339
      C    C147    14.01459   13.47419   17.40142
      C    C148     3.82021    4.36061   17.40142
      C    C149     0.43338    3.82021   13.47419
      C    C150     0.43338   14.01459    4.36061
      C    C151    17.40141   14.01459   13.47419
      C    C152    17.40141    3.82021    4.36061
      C    C153    13.47419    0.43339    3.82021
      C    C154     4.36061    0.43339   14.01459
      C    C155    13.47419   17.40141   14.01459
      C    C156     4.36061   17.40141    3.82021
      C    C157     5.09719   13.27801    8.48401
      C    C158    12.73761    4.55679    8.48401
      C    C159    12.73761   13.27801    9.35079
      C    C160     5.09719    4.55679    9.35079
      C    C161     8.48401    5.09719   13.27801
      C    C162     8.48401   12.73761    4.55679
      C    C163     9.35078   12.73761   13.27801
      C    C164     9.35079    5.09719    4.55679
      C    C165    13.27801    8.48401    5.09719
      C    C166     4.55679    8.48401   12.73761
      C    C167    13.27801    9.35079   12.73761
      C    C168     4.55679    9.35079    5.09719
      H    H169     3.48670   14.34275    0.43517
      H    H170    14.34810    3.49205    0.43517
      H    H171    14.34810   14.34275   17.39963
      H    H172     3.48670    3.49205   17.39963
      H    H173     0.43517    3.48670   14.34275
      H    H174     0.43517   14.34810    3.49205
      H    H175    17.39963   14.34810   14.34275
      H    H176    17.39963    3.48670    3.49205
      H    H177    14.34275    0.43517    3.48670
      H    H178     3.49205    0.43517   14.34810
      H    H179    14.34275   17.39963   14.34810
      H    H180     3.49205   17.39963    3.48670
      H    H181     5.43070   12.40945    8.48223
      H    H182    12.40410    5.42535    8.48223
      H    H183    12.40410   12.40945    9.35257
      H    H184     5.43070    5.42535    9.35257
      H    H185     8.48223    5.43070   12.40945
      H    H186     8.48223   12.40410    5.42535
      H    H187     9.35257   12.40410   12.40945
      H    H188     9.35257    5.43070    5.42535
      H    H189    12.40945    8.48223    5.43070
      H    H190     5.42535    8.48223   12.40410
      H    H191    12.40945    9.35257   12.40410
      H    H192     5.42535    9.35257    5.43070
      C    C193     3.39931    6.06027    0.00000
      C    C194    14.43549   11.77454    0.00000
      C    C195    14.43549    6.06027    0.00000
      C    C196     3.39931   11.77454    0.00000
      C    C197    -0.00000    3.39931    6.06027
      C    C198    -0.00000   14.43549   11.77454
      C    C199    -0.00000   14.43549    6.06027
      C    C200    -0.00000    3.39931   11.77454
      C    C201     6.06027   -0.00000    3.39931
      C    C202    11.77453   -0.00000   14.43549
      C    C203     6.06026   -0.00000   14.43549
      C    C204    11.77454   -0.00000    3.39931
      C    C205     5.51809    2.85713    8.91740
      C    C206    12.31671   14.97767    8.91740
      C    C207    12.31671    2.85713    8.91740
      C    C208     5.51809   14.97767    8.91740
      C    C209     8.91740    5.51809    2.85714
      C    C210     8.91740   12.31671   14.97767
      C    C211     8.91740   12.31671    2.85714
      C    C212     8.91740    5.51809   14.97767
      C    C213     2.85713    8.91740    5.51809
      C    C214    14.97766    8.91740   12.31671
      C    C215     2.85713    8.91740   12.31671
      C    C216    14.97767    8.91740    5.51809
      C    C217     4.57819    5.10967    0.00178
      C    C218    13.25661   12.72513    0.00178
      C    C219    13.25661    5.10967   17.83302
      C    C220     4.57819   12.72513   17.83302
      C    C221     0.00178    4.57819    5.10967
      C    C222     0.00178   13.25661   12.72513
      C    C223    17.83302   13.25661    5.10967
      C    C224    17.83302    4.57819   12.72513
      C    C225     5.10967    0.00178    4.57819
      C    C226    12.72513    0.00178   13.25661
      C    C227     5.10967   17.83302   13.25661
      C    C228    12.72513   17.83302    4.57819
      C    C229     4.33921    3.80773    8.91562
      C    C230    13.49559   14.02707    8.91562
      C    C231    13.49559    3.80773    8.91918
      C    C232     4.33921   14.02707    8.91918
      C    C233     8.91562    4.33921    3.80773
      C    C234     8.91562   13.49559   14.02707
      C    C235     8.91918   13.49559    3.80773
      C    C236     8.91918    4.33921   14.02707
      C    C237     3.80773    8.91562    4.33921
      C    C238    14.02707    8.91562   13.49559
      C    C239     3.80773    8.91918   13.49559
      C    C240    14.02707    8.91918    4.33921
      H    H241     5.45031    5.43248    0.00178
      H    H242    12.38449   12.40232    0.00178
      H    H243    12.38448    5.43248   17.83302
      H    H244     5.45031   12.40232   17.83302
      H    H245     0.00178    5.45031    5.43248
      H    H246     0.00178   12.38449   12.40232
      H    H247    17.83302   12.38449    5.43248
      H    H248    17.83302    5.45031   12.40232
      H    H249     5.43248    0.00178    5.45032
      H    H250    12.40232    0.00178   12.38449
      H    H251     5.43248   17.83302   12.38449
      H    H252    12.40232   17.83302    5.45032
      H    H253     3.46708    3.48492    8.91562
      H    H254    14.36771   14.34988    8.91562
      H    H255    14.36771    3.48492    8.91918
      H    H256     3.46708   14.34988    8.91918
      H    H257     8.91562    3.46709    3.48492
      H    H258     8.91562   14.36771   14.34988
      H    H259     8.91918   14.36772    3.48492
      H    H260     8.91918    3.46708   14.34988
      H    H261     3.48492    8.91562    3.46709
      H    H262    14.34988    8.91562   14.36772
      H    H263     3.48492    8.91918   14.36772
      H    H264    14.34988    8.91918    3.46709
      O    O265     1.36436   10.55285   16.68089
      O    O266    16.47044    7.28195   16.68089
      O    O267    16.47044   10.55285    1.15391
      O    O268     1.36436    7.28195    1.15391
      O    O269    16.68089    1.36436   10.55285
      O    O270    16.68089   16.47044    7.28195
      O    O271     1.15391   16.47044   10.55285
      O    O272     1.15391    1.36436    7.28195
      O    O273    10.55285   16.68089    1.36436
      O    O274     7.28195   16.68089   16.47044
      O    O275    10.55285    1.15391   16.47044
      O    O276     7.28195    1.15391    1.36436
      O    O277     7.55304   16.19935   10.07131
      O    O278    10.28176    1.63545   10.07131
      O    O279    10.28176   16.19935    7.76349
      O    O280     7.55304    1.63545    7.76349
      O    O281    10.07131    7.55304   16.19935
      O    O282    10.07131   10.28176    1.63545
      O    O283     7.76349   10.28176   16.19935
      O    O284     7.76349    7.55304    1.63545
      O    O285    16.19935   10.07131    7.55304
      O    O286     1.63545   10.07131   10.28176
      O    O287    16.19935    7.76349   10.28176
      O    O288     1.63545    7.76349    7.55304
      O    O289     1.06295    7.85445    1.06295
      O    O290    16.77185    9.98035    1.06295
      O    O291    16.77185    7.85445   16.77185
      O    O292     1.06295    9.98035   16.77185
      O    O293     1.06295    1.06295    7.85445
      O    O294     1.06295   16.77185    9.98035
      O    O295    16.77185   16.77185    7.85445
      O    O296    16.77185    1.06295    9.98035
      O    O297     7.85445    1.06295    1.06295
      O    O298     9.98035    1.06295   16.77185
      O    O299     7.85444   16.77185   16.77185
      O    O300     9.98035   16.77185    1.06295
      O    O301     7.85445    1.06295    7.85445
      O    O302     9.98035   16.77185    7.85445
      O    O303     9.98035    1.06295    9.98035
      O    O304     7.85445   16.77185    9.98035
      O    O305     7.85445    7.85445    1.06295
      O    O306     7.85445    9.98035   16.77185
      O    O307     9.98035    9.98035    1.06295
      O    O308     9.98035    7.85445   16.77185
      O    O309     1.06295    7.85445    7.85445
      O    O310    16.77185    7.85445    9.98035
      O    O311     1.06295    9.98035    9.98035
      O    O312    16.77185    9.98035    7.85445
      O    O313     1.06295   10.14087   16.95019
      O    O314    16.77185    7.69393   16.95019
      O    O315    16.77185   10.14087    0.88461
      O    O316     1.06295    7.69393    0.88461
      O    O317    16.95019    1.06295   10.14087
      O    O318    16.95019   16.77185    7.69393
      O    O319     0.88460   16.77185   10.14087
      O    O320     0.88461    1.06295    7.69393
      O    O321    10.14087   16.95019    1.06295
      O    O322     7.69393   16.95019   16.77185
      O    O323    10.14087    0.88461   16.77185
      O    O324     7.69393    0.88461    1.06295
      O    O325     7.85445   16.61133    9.80201
      O    O326     9.98035    1.22347    9.80201
      O    O327     9.98035   16.61133    8.03279
      O    O328     7.85445    1.22347    8.03279
      O    O329     9.80201    7.85445   16.61133
      O    O330     9.80201    9.98035    1.22347
      O    O331     8.03279    9.98035   16.61133
      O    O332     8.03279    7.85445    1.22347
      O    O333    16.61133    9.80201    7.85445
      O    O334     1.22347    9.80201    9.98035
      O    O335    16.61133    8.03279    9.98035
      O    O336     1.22347    8.03279    7.85445
      O    O337     1.40003    7.51737    1.40003
      O    O338    16.43477   10.31743    1.40003
      O    O339    16.43477    7.51737   16.43477
      O    O340     1.40003   10.31743   16.43477
      O    O341     1.40003    1.40003    7.51737
      O    O342     1.40003   16.43477   10.31743
      O    O343    16.43477   16.43477    7.51737
      O    O344    16.43477    1.40003   10.31743
      O    O345     7.51737    1.40003    1.40003
      O    O346    10.31743    1.40003   16.43477
      O    O347     7.51737   16.43477   16.43477
      O    O348    10.31743   16.43477    1.40003
      O    O349     7.51737    1.40003    7.51737
      O    O350    10.31743   16.43477    7.51737
      O    O351    10.31743    1.40003   10.31743
      O    O352     7.51737   16.43477   10.31743
      O    O353     7.51737    7.51737    1.40003
      O    O354     7.51737   10.31743   16.43477
      O    O355    10.31743   10.31743    1.40003
      O    O356    10.31743    7.51737   16.43477
      O    O357     1.40003    7.51737    7.51737
      O    O358    16.43477    7.51737   10.31743
      O    O359     1.40003   10.31743   10.31743
      O    O360    16.43477   10.31743    7.51737
