data_functionalizedCrystal
_audit_creation_method	'EQeq! by Chris Wilmer'
_symmetry_space_group_name_H-M	'P1'
_symmetry_Int_Tables_number	1
_symmetry_cell_setting	triclinic
loop_
_symmetry_equiv_pos_as_xyz
  x,y,z
_cell_length_a	23.211
_cell_length_b	23.211
_cell_length_c	23.211
_cell_angle_alpha	90
_cell_angle_beta	90
_cell_angle_gamma	90
loop_
_atom_site_label
_atom_site_type_symbol
_atom_site_fract_x
_atom_site_fract_y
_atom_site_fract_z
_atom_site_charge
Cu	Cu	0.69352	0.5	-0	0.886
Cu	Cu	0.30648	0.5	-0	0.886
Cu	Cu	1.8747e-33	0.69352	0.5	0.886
Cu	Cu	1.8747e-33	0.30648	0.5	0.886
Cu	Cu	0.5	0	0.69352	0.887
Cu	Cu	0.5	0	0.30648	0.887
Cu	Cu	1.8747e-33	0.19352	0.5	0.884
Cu	Cu	-6.20005e-33	0.80648	0.5	0.89
Cu	Cu	0.19352	0.5	-0	0.884
Cu	Cu	0.80648	0.5	-0	0.89
Cu	Cu	0.5	0	0.80648	0.89
Cu	Cu	0.5	2.01869e-33	0.19352	0.884
H 	H 	0.6655	0.6298	0.8711	-0.007
H 	H 	0.6648	0.6957	0.7967	0.132
H 	H 	0.3345	0.3702	0.8711	-0.009
H 	H 	0.3352	0.3043	0.7967	0.131
H 	H 	0.3345	0.6298	0.1289	-0.024
H 	H 	0.3352	0.6957	0.2033	0.132
H 	H 	0.6655	0.3702	0.1289	-0.024
H 	H 	0.6648	0.3043	0.2033	0.131
H 	H 	0.8711	0.6655	0.6298	-0.007
H 	H 	0.7967	0.6648	0.6957	0.132
H 	H 	0.8711	0.3345	0.3702	-0.009
H 	H 	0.7967	0.3352	0.3043	0.131
H 	H 	0.1289	0.3345	0.6298	-0.024
H 	H 	0.2033	0.3352	0.6957	0.132
H 	H 	0.1289	0.6655	0.3702	-0.024
H 	H 	0.2033	0.6648	0.3043	0.131
H 	H 	0.6298	0.8711	0.6655	-0.007
H 	H 	0.6957	0.7967	0.6648	0.132
H 	H 	0.3702	0.8711	0.3345	-0.009
H 	H 	0.3043	0.7967	0.3352	0.131
H 	H 	0.6298	0.1289	0.3345	-0.024
H 	H 	0.6957	0.2033	0.3352	0.132
H 	H 	0.3702	0.1289	0.6655	-0.024
H 	H 	0.3043	0.2033	0.6648	0.131
H 	H 	0.1298	0.1655	0.6289	-0.03
H 	H 	0.1957	0.1648	0.7033	0.126
H 	H 	0.8702	0.8345	0.6289	-0
H 	H 	0.8043	0.8352	0.7033	0.14
H 	H 	0.1298	0.8345	0.3711	-0.018
H 	H 	0.1957	0.8352	0.2967	0.134
H 	H 	0.8702	0.1655	0.3711	-0.015
H 	H 	0.8043	0.1648	0.2967	0.125
H 	H 	0.1655	0.3711	0.8702	-0.015
H 	H 	0.1648	0.2967	0.8043	0.125
H 	H 	0.8345	0.3711	0.1298	-0.018
H 	H 	0.8352	0.2967	0.1957	0.134
H 	H 	0.8345	0.6289	0.8702	-0
H 	H 	0.8352	0.7033	0.8043	0.14
H 	H 	0.1655	0.6289	0.1298	-0.03
H 	H 	0.1648	0.7033	0.1957	0.126
H 	H 	0.3711	0.1298	0.8345	-0.018
H 	H 	0.2967	0.1957	0.8352	0.134
H 	H 	0.3711	0.8702	0.1655	-0.015
H 	H 	0.2967	0.8043	0.1648	0.125
H 	H 	0.6289	0.1298	0.1655	-0.03
H 	H 	0.7033	0.1957	0.1648	0.126
H 	H 	0.6289	0.8702	0.8345	-0
H 	H 	0.7033	0.8043	0.8352	0.14
H 	H 	0.3345	0.3702	0.1289	-0.025
H 	H 	0.3352	0.3043	0.2033	0.131
H 	H 	0.6655	0.6298	0.1289	-0.023
H 	H 	0.6648	0.6957	0.2033	0.132
H 	H 	0.6655	0.3702	0.8711	-0.007
H 	H 	0.6648	0.3043	0.7967	0.131
H 	H 	0.3345	0.6298	0.8711	-0.008
H 	H 	0.3352	0.6957	0.7967	0.132
H 	H 	0.1289	0.3345	0.3702	-0.025
H 	H 	0.2033	0.3352	0.3043	0.131
H 	H 	0.1289	0.6655	0.6298	-0.023
H 	H 	0.2033	0.6648	0.6957	0.132
H 	H 	0.8711	0.6655	0.3702	-0.007
H 	H 	0.7967	0.6648	0.3043	0.131
H 	H 	0.8711	0.3345	0.6298	-0.008
H 	H 	0.7967	0.3352	0.6957	0.132
H 	H 	0.3702	0.1289	0.3345	-0.025
H 	H 	0.3043	0.2033	0.3352	0.131
H 	H 	0.6298	0.1289	0.6655	-0.023
H 	H 	0.6957	0.2033	0.6648	0.132
H 	H 	0.3702	0.8711	0.6655	-0.007
H 	H 	0.3043	0.7967	0.6648	0.131
H 	H 	0.6298	0.8711	0.3345	-0.008
H 	H 	0.6957	0.7967	0.3352	0.132
H 	H 	0.8702	0.8345	0.3711	-0.002
H 	H 	0.8043	0.8352	0.2967	0.136
H 	H 	0.1298	0.1655	0.3711	-0.031
H 	H 	0.1957	0.1648	0.2967	0.122
H 	H 	0.8702	0.1655	0.6289	-0.014
H 	H 	0.8043	0.1648	0.7033	0.129
H 	H 	0.1298	0.8345	0.6289	-0.016
H 	H 	0.1957	0.8352	0.7033	0.138
H 	H 	0.8345	0.6289	0.1298	-0.016
H 	H 	0.8352	0.7033	0.1957	0.138
H 	H 	0.1655	0.6289	0.8702	-0.014
H 	H 	0.1648	0.7033	0.8043	0.129
H 	H 	0.1655	0.3711	0.1298	-0.031
H 	H 	0.1648	0.2967	0.1957	0.122
H 	H 	0.8345	0.3711	0.8702	-0.002
H 	H 	0.8352	0.2967	0.8043	0.136
H 	H 	0.6289	0.8702	0.1655	-0.014
H 	H 	0.7033	0.8043	0.1648	0.129
H 	H 	0.6289	0.1298	0.8345	-0.016
H 	H 	0.7033	0.1957	0.8352	0.138
H 	H 	0.3711	0.8702	0.8345	-0.002
H 	H 	0.2967	0.8043	0.8352	0.136
H 	H 	0.3711	0.1298	0.1655	-0.031
H 	H 	0.2967	0.1957	0.1648	0.122
C 	C 	0.7004	0.6428	0.8565	0.178
C 	C 	0.6997	0.684	0.8126	-0.265
C 	C 	0.2996	0.3572	0.8565	0.177
C 	C 	0.3003	0.316	0.8126	-0.267
C 	C 	0.2996	0.6428	0.1435	0.19
C 	C 	0.3003	0.684	0.1874	-0.283
C 	C 	0.7004	0.3572	0.1435	0.187
C 	C 	0.6997	0.316	0.1874	-0.28
C 	C 	0.8565	0.7004	0.6428	0.178
C 	C 	0.8126	0.6997	0.684	-0.265
C 	C 	0.8565	0.2996	0.3572	0.177
C 	C 	0.8126	0.3003	0.316	-0.267
C 	C 	0.1435	0.2996	0.6428	0.19
C 	C 	0.1874	0.3003	0.684	-0.283
C 	C 	0.1435	0.7004	0.3572	0.187
C 	C 	0.1874	0.6997	0.316	-0.28
C 	C 	0.6428	0.8565	0.7004	0.178
C 	C 	0.684	0.8126	0.6997	-0.265
C 	C 	0.3572	0.8565	0.2996	0.177
C 	C 	0.316	0.8126	0.3003	-0.267
C 	C 	0.6428	0.1435	0.2996	0.19
C 	C 	0.684	0.1874	0.3003	-0.283
C 	C 	0.3572	0.1435	0.7004	0.187
C 	C 	0.316	0.1874	0.6997	-0.28
C 	C 	0.1428	0.2004	0.6435	0.189
C 	C 	0.184	0.1997	0.6874	-0.284
C 	C 	0.8572	0.7996	0.6435	0.179
C 	C 	0.816	0.8003	0.6874	-0.264
C 	C 	0.1428	0.7996	0.3565	0.187
C 	C 	0.184	0.8003	0.3126	-0.28
C 	C 	0.8572	0.2004	0.3565	0.177
C 	C 	0.816	0.1997	0.3126	-0.269
C 	C 	0.2004	0.3565	0.8572	0.177
C 	C 	0.1997	0.3126	0.816	-0.269
C 	C 	0.7996	0.3565	0.1428	0.187
C 	C 	0.8003	0.3126	0.184	-0.28
C 	C 	0.7996	0.6435	0.8572	0.179
C 	C 	0.8003	0.6874	0.816	-0.264
C 	C 	0.2004	0.6435	0.1428	0.189
C 	C 	0.1997	0.6874	0.184	-0.284
C 	C 	0.3565	0.1428	0.7996	0.187
C 	C 	0.3126	0.184	0.8003	-0.28
C 	C 	0.3565	0.8572	0.2004	0.177
C 	C 	0.3126	0.816	0.1997	-0.269
C 	C 	0.6435	0.1428	0.2004	0.189
C 	C 	0.6874	0.184	0.1997	-0.284
C 	C 	0.6435	0.8572	0.7996	0.179
C 	C 	0.6874	0.816	0.8003	-0.264
C 	C 	0.2996	0.3572	0.1435	0.188
C 	C 	0.3003	0.316	0.1874	-0.283
C 	C 	0.7004	0.6428	0.1435	0.189
C 	C 	0.6997	0.684	0.1874	-0.28
C 	C 	0.7004	0.3572	0.8565	0.176
C 	C 	0.6997	0.316	0.8126	-0.265
C 	C 	0.2996	0.6428	0.8565	0.179
C 	C 	0.3003	0.684	0.8126	-0.267
C 	C 	0.1435	0.2996	0.3572	0.188
C 	C 	0.1874	0.3003	0.316	-0.283
C 	C 	0.1435	0.7004	0.6428	0.189
C 	C 	0.1874	0.6997	0.684	-0.28
C 	C 	0.8565	0.7004	0.3572	0.176
C 	C 	0.8126	0.6997	0.316	-0.265
C 	C 	0.8565	0.2996	0.6428	0.179
C 	C 	0.8126	0.3003	0.684	-0.267
C 	C 	0.3572	0.1435	0.2996	0.188
C 	C 	0.316	0.1874	0.3003	-0.283
C 	C 	0.6428	0.1435	0.7004	0.189
C 	C 	0.684	0.1874	0.6997	-0.28
C 	C 	0.3572	0.8565	0.7004	0.176
C 	C 	0.316	0.8126	0.6997	-0.265
C 	C 	0.6428	0.8565	0.2996	0.179
C 	C 	0.684	0.8126	0.3003	-0.267
C 	C 	0.8572	0.7996	0.3565	0.177
C 	C 	0.816	0.8003	0.3126	-0.264
C 	C 	0.1428	0.2004	0.3565	0.187
C 	C 	0.184	0.1997	0.3126	-0.284
C 	C 	0.8572	0.2004	0.6435	0.179
C 	C 	0.816	0.1997	0.6874	-0.268
C 	C 	0.1428	0.7996	0.6435	0.189
C 	C 	0.184	0.8003	0.6874	-0.279
C 	C 	0.7996	0.6435	0.1428	0.189
C 	C 	0.8003	0.6874	0.184	-0.279
C 	C 	0.2004	0.6435	0.8572	0.179
C 	C 	0.1997	0.6874	0.816	-0.268
C 	C 	0.2004	0.3565	0.1428	0.187
C 	C 	0.1997	0.3126	0.184	-0.284
C 	C 	0.7996	0.3565	0.8572	0.177
C 	C 	0.8003	0.3126	0.816	-0.264
C 	C 	0.6435	0.8572	0.2004	0.179
C 	C 	0.6874	0.816	0.1997	-0.268
C 	C 	0.6435	0.1428	0.7996	0.189
C 	C 	0.6874	0.184	0.8003	-0.279
C 	C 	0.3565	0.8572	0.7996	0.177
C 	C 	0.3126	0.816	0.8003	-0.264
C 	C 	0.3565	0.1428	0.2004	0.187
C 	C 	0.3126	0.184	0.1997	-0.284
C 	C 	0.75	0.5776	0.9224	0.432
C 	C 	0.75	0.621	0.879	-0.233
C 	C 	0.75	0.7069	0.7931	0.234
C 	C 	0.25	0.4224	0.9224	0.433
C 	C 	0.25	0.379	0.879	-0.24
C 	C 	0.25	0.2931	0.7931	0.23
C 	C 	0.25	0.5776	0.0776	0.444
C 	C 	0.25	0.621	0.121	-0.265
C 	C 	0.25	0.7069	0.2069	0.237
C 	C 	0.75	0.4224	0.0776	0.442
C 	C 	0.75	0.379	0.121	-0.26
C 	C 	0.75	0.2931	0.2069	0.236
C 	C 	0.9224	0.75	0.5776	0.432
C 	C 	0.879	0.75	0.621	-0.233
C 	C 	0.7931	0.75	0.7069	0.234
C 	C 	0.9224	0.25	0.4224	0.433
C 	C 	0.879	0.25	0.379	-0.24
C 	C 	0.7931	0.25	0.2931	0.23
C 	C 	0.0776	0.25	0.5776	0.444
C 	C 	0.121	0.25	0.621	-0.265
C 	C 	0.2069	0.25	0.7069	0.237
C 	C 	0.0776	0.75	0.4224	0.442
C 	C 	0.121	0.75	0.379	-0.26
C 	C 	0.2069	0.75	0.2931	0.236
C 	C 	0.5776	0.9224	0.75	0.432
C 	C 	0.621	0.879	0.75	-0.233
C 	C 	0.7069	0.7931	0.75	0.234
C 	C 	0.4224	0.9224	0.25	0.433
C 	C 	0.379	0.879	0.25	-0.24
C 	C 	0.2931	0.7931	0.25	0.23
C 	C 	0.5776	0.0776	0.25	0.444
C 	C 	0.621	0.121	0.25	-0.265
C 	C 	0.7069	0.2069	0.25	0.237
C 	C 	0.4224	0.0776	0.75	0.442
C 	C 	0.379	0.121	0.75	-0.26
C 	C 	0.2931	0.2069	0.75	0.236
C 	C 	0.25	0.4224	0.0776	0.444
C 	C 	0.25	0.379	0.121	-0.266
C 	C 	0.25	0.2931	0.2069	0.235
C 	C 	0.75	0.5776	0.0776	0.442
C 	C 	0.75	0.621	0.121	-0.259
C 	C 	0.75	0.7069	0.2069	0.239
C 	C 	0.75	0.4224	0.9224	0.431
C 	C 	0.75	0.379	0.879	-0.234
C 	C 	0.75	0.2931	0.7931	0.231
C 	C 	0.25	0.5776	0.9224	0.434
C 	C 	0.25	0.621	0.879	-0.239
C 	C 	0.25	0.7069	0.7931	0.232
C 	C 	0.0776	0.25	0.4224	0.444
C 	C 	0.121	0.25	0.379	-0.266
C 	C 	0.2069	0.25	0.2931	0.235
C 	C 	0.0776	0.75	0.5776	0.442
C 	C 	0.121	0.75	0.621	-0.259
C 	C 	0.2069	0.75	0.7069	0.239
C 	C 	0.9224	0.75	0.4224	0.431
C 	C 	0.879	0.75	0.379	-0.234
C 	C 	0.7931	0.75	0.2931	0.231
C 	C 	0.9224	0.25	0.5776	0.434
C 	C 	0.879	0.25	0.621	-0.239
C 	C 	0.7931	0.25	0.7069	0.232
C 	C 	0.4224	0.0776	0.25	0.444
C 	C 	0.379	0.121	0.25	-0.266
C 	C 	0.2931	0.2069	0.25	0.235
C 	C 	0.5776	0.0776	0.75	0.442
C 	C 	0.621	0.121	0.75	-0.259
C 	C 	0.7069	0.2069	0.75	0.239
C 	C 	0.4224	0.9224	0.75	0.431
C 	C 	0.379	0.879	0.75	-0.234
C 	C 	0.2931	0.7931	0.75	0.231
C 	C 	0.5776	0.9224	0.25	0.434
C 	C 	0.621	0.879	0.25	-0.239
C 	C 	0.7069	0.7931	0.25	0.232
N 	N 	0.75	0.75	0.75	-0.22
N 	N 	0.25	0.25	0.75	-0.224
N 	N 	0.25	0.75	0.25	-0.224
N 	N 	0.75	0.25	0.25	-0.224
N 	N 	0.25	0.25	0.25	-0.226
N 	N 	0.75	0.75	0.25	-0.222
N 	N 	0.75	0.25	0.75	-0.222
N 	N 	0.25	0.75	0.75	-0.222
O 	O 	0.70272	0.559	0.94103	-0.398
O 	O 	0.29728	0.441	0.94103	-0.4
O 	O 	0.29728	0.559	0.05897	-0.442
O 	O 	0.70272	0.441	0.05897	-0.442
O 	O 	0.94103	0.70272	0.559	-0.398
O 	O 	0.94103	0.29728	0.441	-0.4
O 	O 	0.05897	0.29728	0.559	-0.442
O 	O 	0.05897	0.70272	0.441	-0.442
O 	O 	0.559	0.94103	0.70272	-0.398
O 	O 	0.441	0.94103	0.29728	-0.4
O 	O 	0.559	0.05897	0.29728	-0.442
O 	O 	0.441	0.05897	0.70272	-0.442
O 	O 	0.059	0.20272	0.55897	-0.447
O 	O 	0.941	0.79728	0.55897	-0.393
O 	O 	0.059	0.79728	0.44103	-0.437
O 	O 	0.941	0.20272	0.44103	-0.405
O 	O 	0.20272	0.44103	0.941	-0.405
O 	O 	0.79728	0.44103	0.059	-0.437
O 	O 	0.79728	0.55897	0.941	-0.393
O 	O 	0.20272	0.55897	0.059	-0.447
O 	O 	0.44103	0.059	0.79728	-0.437
O 	O 	0.44103	0.941	0.20272	-0.405
O 	O 	0.55897	0.059	0.20272	-0.447
O 	O 	0.55897	0.941	0.79728	-0.393
O 	O 	0.29728	0.441	0.05897	-0.443
O 	O 	0.70272	0.559	0.05897	-0.441
O 	O 	0.70272	0.441	0.94103	-0.398
O 	O 	0.29728	0.559	0.94103	-0.399
O 	O 	0.05897	0.29728	0.441	-0.443
O 	O 	0.05897	0.70272	0.559	-0.441
O 	O 	0.94103	0.70272	0.441	-0.398
O 	O 	0.94103	0.29728	0.559	-0.399
O 	O 	0.441	0.05897	0.29728	-0.443
O 	O 	0.559	0.05897	0.70272	-0.441
O 	O 	0.441	0.94103	0.70272	-0.398
O 	O 	0.559	0.94103	0.29728	-0.399
O 	O 	0.941	0.79728	0.44103	-0.394
O 	O 	0.059	0.20272	0.44103	-0.448
O 	O 	0.941	0.20272	0.55897	-0.404
O 	O 	0.059	0.79728	0.55897	-0.436
O 	O 	0.79728	0.55897	0.059	-0.436
O 	O 	0.20272	0.55897	0.941	-0.404
O 	O 	0.20272	0.44103	0.059	-0.448
O 	O 	0.79728	0.44103	0.941	-0.394
O 	O 	0.55897	0.941	0.20272	-0.404
O 	O 	0.55897	0.059	0.79728	-0.436
O 	O 	0.44103	0.941	0.79728	-0.394
O 	O 	0.44103	0.059	0.20272	-0.448
_end
