data_n1596
_audit_creation_date              2012-02-07
_audit_creation_method            'Materials Studio'
_symmetry_space_group_name_H-M    'P1'
_symmetry_Int_Tables_number       1
_symmetry_cell_setting            triclinic
loop_
_symmetry_equiv_pos_as_xyz
  x,y,z
_cell_length_a                    31.3109
_cell_length_b                    31.3109
_cell_length_c                    44.8070
_cell_angle_alpha                 90.0000
_cell_angle_beta                  90.0000
_cell_angle_gamma                 90.0000
loop_
_atom_site_label
_atom_site_type_symbol
_atom_site_fract_x
_atom_site_fract_y
_atom_site_fract_z
_atom_site_U_iso_or_equiv
_atom_site_adp_type
_atom_site_occupancy
Cu1    Cu    0.64495   0.39505   0.12720   0.05193  Uani   1.00
Cu2    Cu    0.69391   0.35868   0.16816   0.05167  Uani   1.00
O3     O     0.59874   0.37340   0.15158   0.06700  Uani   1.00
O4     O     0.63928   0.34820   0.18780   0.06233  Uani   1.00
O5     O     0.64814   0.33936   0.10668   0.06167  Uani   1.00
O6     O     0.68710   0.30753   0.14342   0.07067  Uani   1.00
O7     O     0.69668   0.41068   0.10981   0.06600  Uani   1.00
O8     O     0.74009   0.37510   0.14197   0.07567  Uani   1.00
O9     O     0.64956   0.44410   0.15235   0.05867  Uani   1.00
O10    O     0.69420   0.41524   0.18747   0.07067  Uani   1.00
O11    O     0.58360   0.25202   0.03033   0.06967  Uani   1.00
O12    O     0.59250   0.17900   0.03090   0.07033  Uani   1.00
O13    O     0.49665   0.23770   0.03027   0.06833  Uani   1.00
O14    O     0.50532   0.16577   0.97018   0.06300  Uani   1.00
N15    N     0.53540   0.27440   0.25900   0.14367  Uani   1.00
N16    N     0.57620   0.25340   0.26310   0.20067  Uani   1.00
N17    N     0.56600   0.24220   0.29230   0.21000  Uani   1.00
N18    N     0.36860   0.04850   0.08860   0.21867  Uani   1.00
N19    N     0.38490   0.08310   0.07620   0.19833  Uani   1.00
N20    N     0.38760   0.11210   0.09850   0.13800  Uani   1.00
N21    N     0.68940   0.15140   0.11600   0.15167  Uani   1.00
N22    N     0.72090   0.15630   0.13680   0.17267  Uani   1.00
N23    N     0.72820   0.11370   0.14430   0.15667  Uani   1.00
C24    C     0.60300   0.35480   0.17430   0.05500  Uani   1.00
C25    C     0.56390   0.33420   0.19160   0.08767  Uani   1.00
C26    C     0.56890   0.31600   0.21700   0.06867  Uani   1.00
H27    H     0.59600   0.31420   0.22600   0.08200  Uiso   1.00
C28    C     0.53420   0.29940   0.23040   0.11133  Uani   1.00
C29    C     0.50790   0.26260   0.27630   0.10267  Uani   1.00
H30    H     0.47820   0.26680   0.27490   0.12300  Uiso   1.00
C31    C     0.53150   0.24040   0.29990   0.13200  Uani   1.00
C32    C     0.51430   0.22370   0.32720   0.15200  Uani   1.00
C33    C     0.46960   0.21800   0.33220   0.16300  Uani   1.00
H34    H     0.45020   0.22520   0.31700   0.19500  Uiso   1.00
C35    C     0.45590   0.20370   0.35600   0.18867  Uani   1.00
C36    C     0.32930   0.98730   0.12760   0.17667  Uani   1.00
H37    H     0.34660   0.97600   0.11240   0.21000  Uiso   1.00
C38    C     0.33350   0.02750   0.13410   0.16000  Uani   1.00
C39    C     0.54310   0.19720   0.34350   0.12667  Uani   1.00
H40    H     0.57260   0.19930   0.33980   0.15200  Uiso   1.00
C41    C     0.35570   0.05350   0.11550   0.15367  Uani   1.00
C42    C     0.36320   0.10260   0.12050   0.13167  Uani   1.00
H43    H     0.35250   0.12030   0.13570   0.15800  Uiso   1.00
C44    C     0.40700   0.14930   0.09000   0.10433  Uani   1.00
C45    C     0.39270   0.18810   0.10810   0.08967  Uani   1.00
H46    H     0.37180   0.18560   0.12300   0.10800  Uiso   1.00
C47    C     0.41230   0.22860   0.10150   0.06367  Uani   1.00
C48    C     0.43840   0.22930   0.07900   0.07500  Uani   1.00
H49    H     0.44460   0.25660   0.07150   0.09000  Uiso   1.00
C50    C     0.45880   0.19530   0.06430   0.07833  Uani   1.00
C51    C     0.43500   0.15580   0.06870   0.09500  Uani   1.00
H52    H     0.44000   0.13330   0.05530   0.11400  Uiso   1.00
C53    C     0.48980   0.19990   0.04070   0.06333  Uani   1.00
C54    C     0.66110   0.30760   0.11960   0.07867  Uani   1.00
C55    C     0.65960   0.26510   0.10500   0.06600  Uani   1.00
C56    C     0.63590   0.26160   0.08020   0.05767  Uani   1.00
H57    H     0.62450   0.28630   0.07130   0.06900  Uiso   1.00
C58    C     0.62770   0.22050   0.06700   0.06733  Uani   1.00
C59    C     0.64710   0.18740   0.07900   0.08667  Uani   1.00
H60    H     0.64660   0.16140   0.06840   0.10400  Uiso   1.00
C61    C     0.66800   0.18840   0.10600   0.12067  Uani   1.00
C62    C     0.67810   0.23030   0.11690   0.11400  Uani   1.00
H63    H     0.69780   0.23350   0.13260   0.13700  Uiso   1.00
C64    C     0.60250   0.21550   0.04170   0.07233  Uani   1.00
C65    C     0.67180   0.11120   0.11620   0.16933  Uani   1.00
H66    H     0.64660   0.10060   0.10750   0.20300  Uiso   1.00
C67    C     0.73730   0.39990   0.11810   0.07367  Uani   1.00
C68    C     0.70400   0.09030   0.13390   0.17233  Uani   1.00
C69    C     0.65690   0.52280   0.17900   0.10567  Uani   1.00
H70    H     0.63770   0.51960   0.16310   0.12700  Uiso   1.00
C71    C     0.67710   0.48890   0.19090   0.07033  Uani   1.00
C72    C     0.69780   0.49160   0.21780   0.09900  Uani   1.00
H73    H     0.70940   0.46760   0.22740   0.11900  Uiso   1.00
C74    C     0.67260   0.44820   0.17590   0.07200  Uani   1.00
Cu75   Cu    0.14495   0.89505   0.62720   0.05193  Uani   1.00
Cu76   Cu    0.19391   0.85868   0.66816   0.05167  Uani   1.00
O77    O     0.09874   0.87340   0.65158   0.06700  Uani   1.00
O78    O     0.13928   0.84820   0.68780   0.06233  Uani   1.00
O79    O     0.14814   0.83936   0.60668   0.06167  Uani   1.00
O80    O     0.18710   0.80753   0.64342   0.07067  Uani   1.00
O81    O     0.19668   0.91068   0.60981   0.06600  Uani   1.00
O82    O     0.24009   0.87510   0.64197   0.07567  Uani   1.00
O83    O     0.14956   0.94410   0.65235   0.05867  Uani   1.00
O84    O     0.19420   0.91524   0.68747   0.07067  Uani   1.00
O85    O     0.08360   0.75202   0.53033   0.06967  Uani   1.00
O86    O     0.09250   0.67900   0.53090   0.07033  Uani   1.00
O87    O     0.99665   0.73770   0.53027   0.06833  Uani   1.00
O88    O     0.00532   0.66577   0.47018   0.06300  Uani   1.00
N89    N     0.03540   0.77440   0.75900   0.14367  Uani   1.00
N90    N     0.07620   0.75340   0.76310   0.20067  Uani   1.00
N91    N     0.06600   0.74220   0.79230   0.21000  Uani   1.00
N92    N     0.86860   0.54850   0.58860   0.21867  Uani   1.00
N93    N     0.88490   0.58310   0.57620   0.19833  Uani   1.00
N94    N     0.88760   0.61210   0.59850   0.13800  Uani   1.00
N95    N     0.18940   0.65140   0.61600   0.15167  Uani   1.00
N96    N     0.22090   0.65630   0.63680   0.17267  Uani   1.00
N97    N     0.22820   0.61370   0.64430   0.15667  Uani   1.00
C98    C     0.10300   0.85480   0.67430   0.05500  Uani   1.00
C99    C     0.06390   0.83420   0.69160   0.08767  Uani   1.00
C100   C     0.06890   0.81600   0.71700   0.06867  Uani   1.00
H101   H     0.09600   0.81420   0.72600   0.08200  Uiso   1.00
C102   C     0.03420   0.79940   0.73040   0.11133  Uani   1.00
C103   C     0.00790   0.76260   0.77630   0.10267  Uani   1.00
H104   H     0.97820   0.76680   0.77490   0.12300  Uiso   1.00
C105   C     0.03150   0.74040   0.79990   0.13200  Uani   1.00
C106   C     0.01430   0.72370   0.82720   0.15200  Uani   1.00
C107   C     0.96960   0.71800   0.83220   0.16300  Uani   1.00
H108   H     0.95020   0.72520   0.81700   0.19500  Uiso   1.00
C109   C     0.95590   0.70370   0.85600   0.18867  Uani   1.00
C110   C     0.82930   0.48730   0.62760   0.17667  Uani   1.00
H111   H     0.84660   0.47600   0.61240   0.21000  Uiso   1.00
C112   C     0.83350   0.52750   0.63410   0.16000  Uani   1.00
C113   C     0.04310   0.69720   0.84350   0.12667  Uani   1.00
H114   H     0.07260   0.69930   0.83980   0.15200  Uiso   1.00
C115   C     0.85570   0.55350   0.61550   0.15367  Uani   1.00
C116   C     0.86320   0.60260   0.62050   0.13167  Uani   1.00
H117   H     0.85250   0.62030   0.63570   0.15800  Uiso   1.00
C118   C     0.90700   0.64930   0.59000   0.10433  Uani   1.00
C119   C     0.89270   0.68810   0.60810   0.08967  Uani   1.00
H120   H     0.87180   0.68560   0.62300   0.10800  Uiso   1.00
C121   C     0.91230   0.72860   0.60150   0.06367  Uani   1.00
C122   C     0.93840   0.72930   0.57900   0.07500  Uani   1.00
H123   H     0.94460   0.75660   0.57150   0.09000  Uiso   1.00
C124   C     0.95880   0.69530   0.56430   0.07833  Uani   1.00
C125   C     0.93500   0.65580   0.56870   0.09500  Uani   1.00
H126   H     0.94000   0.63330   0.55530   0.11400  Uiso   1.00
C127   C     0.98980   0.69990   0.54070   0.06333  Uani   1.00
C128   C     0.16110   0.80760   0.61960   0.07867  Uani   1.00
C129   C     0.15960   0.76510   0.60500   0.06600  Uani   1.00
C130   C     0.13590   0.76160   0.58020   0.05767  Uani   1.00
H131   H     0.12450   0.78630   0.57130   0.06900  Uiso   1.00
C132   C     0.12770   0.72050   0.56700   0.06733  Uani   1.00
C133   C     0.14710   0.68740   0.57900   0.08667  Uani   1.00
H134   H     0.14660   0.66140   0.56840   0.10400  Uiso   1.00
C135   C     0.16800   0.68840   0.60600   0.12067  Uani   1.00
C136   C     0.17810   0.73030   0.61690   0.11400  Uani   1.00
H137   H     0.19780   0.73350   0.63260   0.13700  Uiso   1.00
C138   C     0.10250   0.71550   0.54170   0.07233  Uani   1.00
C139   C     0.17180   0.61120   0.61620   0.16933  Uani   1.00
H140   H     0.14660   0.60060   0.60750   0.20300  Uiso   1.00
C141   C     0.23730   0.89990   0.61810   0.07367  Uani   1.00
C142   C     0.20400   0.59030   0.63390   0.17233  Uani   1.00
C143   C     0.15690   0.02280   0.67900   0.10567  Uani   1.00
H144   H     0.13770   0.01960   0.66310   0.12700  Uiso   1.00
C145   C     0.17710   0.98890   0.69090   0.07033  Uani   1.00
C146   C     0.19780   0.99160   0.71780   0.09900  Uani   1.00
H147   H     0.20940   0.96760   0.72740   0.11900  Uiso   1.00
C148   C     0.17260   0.94820   0.67590   0.07200  Uani   1.00
Cu149  Cu    0.35505   0.60495   0.12720   0.05193  Uani   1.00
Cu150  Cu    0.30609   0.64132   0.16816   0.05167  Uani   1.00
O151   O     0.40126   0.62660   0.15158   0.06700  Uani   1.00
O152   O     0.36072   0.65180   0.18780   0.06233  Uani   1.00
O153   O     0.35186   0.66064   0.10668   0.06167  Uani   1.00
O154   O     0.31290   0.69247   0.14342   0.07067  Uani   1.00
O155   O     0.30332   0.58932   0.10981   0.06600  Uani   1.00
O156   O     0.25991   0.62490   0.14197   0.07567  Uani   1.00
O157   O     0.35044   0.55590   0.15235   0.05867  Uani   1.00
O158   O     0.30580   0.58476   0.18747   0.07067  Uani   1.00
O159   O     0.41640   0.74798   0.03033   0.06967  Uani   1.00
O160   O     0.40750   0.82100   0.03090   0.07033  Uani   1.00
O161   O     0.50335   0.76230   0.03027   0.06833  Uani   1.00
O162   O     0.49468   0.83423   0.97018   0.06300  Uani   1.00
N163   N     0.46460   0.72560   0.25900   0.14367  Uani   1.00
N164   N     0.42380   0.74660   0.26310   0.20067  Uani   1.00
N165   N     0.43400   0.75780   0.29230   0.21000  Uani   1.00
N166   N     0.63140   0.95150   0.08860   0.21867  Uani   1.00
N167   N     0.61510   0.91690   0.07620   0.19833  Uani   1.00
N168   N     0.61240   0.88790   0.09850   0.13800  Uani   1.00
N169   N     0.31060   0.84860   0.11600   0.15167  Uani   1.00
N170   N     0.27910   0.84370   0.13680   0.17267  Uani   1.00
N171   N     0.27180   0.88630   0.14430   0.15667  Uani   1.00
C172   C     0.39700   0.64520   0.17430   0.05500  Uani   1.00
C173   C     0.43610   0.66580   0.19160   0.08767  Uani   1.00
C174   C     0.43110   0.68400   0.21700   0.06867  Uani   1.00
H175   H     0.40400   0.68580   0.22600   0.08200  Uiso   1.00
C176   C     0.46580   0.70060   0.23040   0.11133  Uani   1.00
C177   C     0.49210   0.73740   0.27630   0.10267  Uani   1.00
H178   H     0.52180   0.73320   0.27490   0.12300  Uiso   1.00
C179   C     0.46850   0.75960   0.29990   0.13200  Uani   1.00
C180   C     0.48570   0.77630   0.32720   0.15200  Uani   1.00
C181   C     0.53040   0.78200   0.33220   0.16300  Uani   1.00
H182   H     0.54980   0.77480   0.31700   0.19500  Uiso   1.00
C183   C     0.54410   0.79630   0.35600   0.18867  Uani   1.00
C184   C     0.67070   0.01270   0.12760   0.17667  Uani   1.00
H185   H     0.65340   0.02400   0.11240   0.21000  Uiso   1.00
C186   C     0.66650   0.97250   0.13410   0.16000  Uani   1.00
C187   C     0.45690   0.80280   0.34350   0.12667  Uani   1.00
H188   H     0.42740   0.80070   0.33980   0.15200  Uiso   1.00
C189   C     0.64430   0.94650   0.11550   0.15367  Uani   1.00
C190   C     0.63680   0.89740   0.12050   0.13167  Uani   1.00
H191   H     0.64750   0.87970   0.13570   0.15800  Uiso   1.00
C192   C     0.59300   0.85070   0.09000   0.10433  Uani   1.00
C193   C     0.60730   0.81190   0.10810   0.08967  Uani   1.00
H194   H     0.62820   0.81440   0.12300   0.10800  Uiso   1.00
C195   C     0.58770   0.77140   0.10150   0.06367  Uani   1.00
C196   C     0.56160   0.77070   0.07900   0.07500  Uani   1.00
H197   H     0.55540   0.74340   0.07150   0.09000  Uiso   1.00
C198   C     0.54120   0.80470   0.06430   0.07833  Uani   1.00
C199   C     0.56500   0.84420   0.06870   0.09500  Uani   1.00
H200   H     0.56000   0.86670   0.05530   0.11400  Uiso   1.00
C201   C     0.51020   0.80010   0.04070   0.06333  Uani   1.00
C202   C     0.33890   0.69240   0.11960   0.07867  Uani   1.00
C203   C     0.34040   0.73490   0.10500   0.06600  Uani   1.00
C204   C     0.36410   0.73840   0.08020   0.05767  Uani   1.00
H205   H     0.37550   0.71370   0.07130   0.06900  Uiso   1.00
C206   C     0.37230   0.77950   0.06700   0.06733  Uani   1.00
C207   C     0.35290   0.81260   0.07900   0.08667  Uani   1.00
H208   H     0.35340   0.83860   0.06840   0.10400  Uiso   1.00
C209   C     0.33200   0.81160   0.10600   0.12067  Uani   1.00
C210   C     0.32190   0.76970   0.11690   0.11400  Uani   1.00
H211   H     0.30220   0.76650   0.13260   0.13700  Uiso   1.00
C212   C     0.39750   0.78450   0.04170   0.07233  Uani   1.00
C213   C     0.32820   0.88880   0.11620   0.16933  Uani   1.00
H214   H     0.35340   0.89940   0.10750   0.20300  Uiso   1.00
C215   C     0.26270   0.60010   0.11810   0.07367  Uani   1.00
C216   C     0.29600   0.90970   0.13390   0.17233  Uani   1.00
C217   C     0.34310   0.47720   0.17900   0.10567  Uani   1.00
H218   H     0.36230   0.48040   0.16310   0.12700  Uiso   1.00
C219   C     0.32290   0.51110   0.19090   0.07033  Uani   1.00
C220   C     0.30220   0.50840   0.21780   0.09900  Uani   1.00
H221   H     0.29060   0.53240   0.22740   0.11900  Uiso   1.00
C222   C     0.32740   0.55180   0.17590   0.07200  Uani   1.00
Cu223  Cu    0.85505   0.10495   0.62720   0.05193  Uani   1.00
Cu224  Cu    0.80609   0.14132   0.66816   0.05167  Uani   1.00
O225   O     0.90126   0.12660   0.65158   0.06700  Uani   1.00
O226   O     0.86072   0.15180   0.68780   0.06233  Uani   1.00
O227   O     0.85186   0.16064   0.60668   0.06167  Uani   1.00
O228   O     0.81290   0.19247   0.64342   0.07067  Uani   1.00
O229   O     0.80332   0.08932   0.60981   0.06600  Uani   1.00
O230   O     0.75991   0.12490   0.64197   0.07567  Uani   1.00
O231   O     0.85044   0.05590   0.65235   0.05867  Uani   1.00
O232   O     0.80580   0.08476   0.68747   0.07067  Uani   1.00
O233   O     0.91640   0.24798   0.53033   0.06967  Uani   1.00
O234   O     0.90750   0.32100   0.53090   0.07033  Uani   1.00
O235   O     0.00335   0.26230   0.53027   0.06833  Uani   1.00
O236   O     0.99468   0.33423   0.47018   0.06300  Uani   1.00
N237   N     0.96460   0.22560   0.75900   0.14367  Uani   1.00
N238   N     0.92380   0.24660   0.76310   0.20067  Uani   1.00
N239   N     0.93400   0.25780   0.79230   0.21000  Uani   1.00
N240   N     0.13140   0.45150   0.58860   0.21867  Uani   1.00
N241   N     0.11510   0.41690   0.57620   0.19833  Uani   1.00
N242   N     0.11240   0.38790   0.59850   0.13800  Uani   1.00
N243   N     0.81060   0.34860   0.61600   0.15167  Uani   1.00
N244   N     0.77910   0.34370   0.63680   0.17267  Uani   1.00
N245   N     0.77180   0.38630   0.64430   0.15667  Uani   1.00
C246   C     0.89700   0.14520   0.67430   0.05500  Uani   1.00
C247   C     0.93610   0.16580   0.69160   0.08767  Uani   1.00
C248   C     0.93110   0.18400   0.71700   0.06867  Uani   1.00
H249   H     0.90400   0.18580   0.72600   0.08200  Uiso   1.00
C250   C     0.96580   0.20060   0.73040   0.11133  Uani   1.00
C251   C     0.99210   0.23740   0.77630   0.10267  Uani   1.00
H252   H     0.02180   0.23320   0.77490   0.12300  Uiso   1.00
C253   C     0.96850   0.25960   0.79990   0.13200  Uani   1.00
C254   C     0.98570   0.27630   0.82720   0.15200  Uani   1.00
C255   C     0.03040   0.28200   0.83220   0.16300  Uani   1.00
H256   H     0.04980   0.27480   0.81700   0.19500  Uiso   1.00
C257   C     0.04410   0.29630   0.85600   0.18867  Uani   1.00
C258   C     0.17070   0.51270   0.62760   0.17667  Uani   1.00
H259   H     0.15340   0.52400   0.61240   0.21000  Uiso   1.00
C260   C     0.16650   0.47250   0.63410   0.16000  Uani   1.00
C261   C     0.95690   0.30280   0.84350   0.12667  Uani   1.00
H262   H     0.92740   0.30070   0.83980   0.15200  Uiso   1.00
C263   C     0.14430   0.44650   0.61550   0.15367  Uani   1.00
C264   C     0.13680   0.39740   0.62050   0.13167  Uani   1.00
H265   H     0.14750   0.37970   0.63570   0.15800  Uiso   1.00
C266   C     0.09300   0.35070   0.59000   0.10433  Uani   1.00
C267   C     0.10730   0.31190   0.60810   0.08967  Uani   1.00
H268   H     0.12820   0.31440   0.62300   0.10800  Uiso   1.00
C269   C     0.08770   0.27140   0.60150   0.06367  Uani   1.00
C270   C     0.06160   0.27070   0.57900   0.07500  Uani   1.00
H271   H     0.05540   0.24340   0.57150   0.09000  Uiso   1.00
C272   C     0.04120   0.30470   0.56430   0.07833  Uani   1.00
C273   C     0.06500   0.34420   0.56870   0.09500  Uani   1.00
H274   H     0.06000   0.36670   0.55530   0.11400  Uiso   1.00
C275   C     0.01020   0.30010   0.54070   0.06333  Uani   1.00
C276   C     0.83890   0.19240   0.61960   0.07867  Uani   1.00
C277   C     0.84040   0.23490   0.60500   0.06600  Uani   1.00
C278   C     0.86410   0.23840   0.58020   0.05767  Uani   1.00
H279   H     0.87550   0.21370   0.57130   0.06900  Uiso   1.00
C280   C     0.87230   0.27950   0.56700   0.06733  Uani   1.00
C281   C     0.85290   0.31260   0.57900   0.08667  Uani   1.00
H282   H     0.85340   0.33860   0.56840   0.10400  Uiso   1.00
C283   C     0.83200   0.31160   0.60600   0.12067  Uani   1.00
C284   C     0.82190   0.26970   0.61690   0.11400  Uani   1.00
H285   H     0.80220   0.26650   0.63260   0.13700  Uiso   1.00
C286   C     0.89750   0.28450   0.54170   0.07233  Uani   1.00
C287   C     0.82820   0.38880   0.61620   0.16933  Uani   1.00
H288   H     0.85340   0.39940   0.60750   0.20300  Uiso   1.00
C289   C     0.76270   0.10010   0.61810   0.07367  Uani   1.00
C290   C     0.79600   0.40970   0.63390   0.17233  Uani   1.00
C291   C     0.84310   0.97720   0.67900   0.10567  Uani   1.00
H292   H     0.86230   0.98040   0.66310   0.12700  Uiso   1.00
C293   C     0.82290   0.01110   0.69090   0.07033  Uani   1.00
C294   C     0.80220   0.00840   0.71780   0.09900  Uani   1.00
H295   H     0.79060   0.03240   0.72740   0.11900  Uiso   1.00
C296   C     0.82740   0.05180   0.67590   0.07200  Uani   1.00
Cu297  Cu    0.60495   0.64495   0.12720   0.05193  Uani   1.00
Cu298  Cu    0.64132   0.69391   0.16816   0.05167  Uani   1.00
O299   O     0.62660   0.59874   0.15158   0.06700  Uani   1.00
O300   O     0.65180   0.63928   0.18780   0.06233  Uani   1.00
O301   O     0.66064   0.64814   0.10668   0.06167  Uani   1.00
O302   O     0.69247   0.68710   0.14342   0.07067  Uani   1.00
O303   O     0.58932   0.69668   0.10981   0.06600  Uani   1.00
O304   O     0.62490   0.74009   0.14197   0.07567  Uani   1.00
O305   O     0.55590   0.64956   0.15235   0.05867  Uani   1.00
O306   O     0.58476   0.69420   0.18747   0.07067  Uani   1.00
O307   O     0.74798   0.58360   0.03033   0.06967  Uani   1.00
O308   O     0.82100   0.59250   0.03090   0.07033  Uani   1.00
O309   O     0.76230   0.49665   0.03027   0.06833  Uani   1.00
O310   O     0.83423   0.50532   0.97018   0.06300  Uani   1.00
N311   N     0.72560   0.53540   0.25900   0.14367  Uani   1.00
N312   N     0.74660   0.57620   0.26310   0.20067  Uani   1.00
N313   N     0.75780   0.56600   0.29230   0.21000  Uani   1.00
N314   N     0.95150   0.36860   0.08860   0.21867  Uani   1.00
N315   N     0.91690   0.38490   0.07620   0.19833  Uani   1.00
N316   N     0.88790   0.38760   0.09850   0.13800  Uani   1.00
N317   N     0.84860   0.68940   0.11600   0.15167  Uani   1.00
N318   N     0.84370   0.72090   0.13680   0.17267  Uani   1.00
N319   N     0.88630   0.72820   0.14430   0.15667  Uani   1.00
C320   C     0.64520   0.60300   0.17430   0.05500  Uani   1.00
C321   C     0.66580   0.56390   0.19160   0.08767  Uani   1.00
C322   C     0.68400   0.56890   0.21700   0.06867  Uani   1.00
H323   H     0.68580   0.59600   0.22600   0.08200  Uiso   1.00
C324   C     0.70060   0.53420   0.23040   0.11133  Uani   1.00
C325   C     0.73740   0.50790   0.27630   0.10267  Uani   1.00
H326   H     0.73320   0.47820   0.27490   0.12300  Uiso   1.00
C327   C     0.75960   0.53150   0.29990   0.13200  Uani   1.00
C328   C     0.77630   0.51430   0.32720   0.15200  Uani   1.00
C329   C     0.78200   0.46960   0.33220   0.16300  Uani   1.00
H330   H     0.77480   0.45020   0.31700   0.19500  Uiso   1.00
C331   C     0.79630   0.45590   0.35600   0.18867  Uani   1.00
C332   C     0.01270   0.32930   0.12760   0.17667  Uani   1.00
H333   H     0.02400   0.34660   0.11240   0.21000  Uiso   1.00
C334   C     0.97250   0.33350   0.13410   0.16000  Uani   1.00
C335   C     0.80280   0.54310   0.34350   0.12667  Uani   1.00
H336   H     0.80070   0.57260   0.33980   0.15200  Uiso   1.00
C337   C     0.94650   0.35570   0.11550   0.15367  Uani   1.00
C338   C     0.89740   0.36320   0.12050   0.13167  Uani   1.00
H339   H     0.87970   0.35250   0.13570   0.15800  Uiso   1.00
C340   C     0.85070   0.40700   0.09000   0.10433  Uani   1.00
C341   C     0.81190   0.39270   0.10810   0.08967  Uani   1.00
H342   H     0.81440   0.37180   0.12300   0.10800  Uiso   1.00
C343   C     0.77140   0.41230   0.10150   0.06367  Uani   1.00
C344   C     0.77070   0.43840   0.07900   0.07500  Uani   1.00
H345   H     0.74340   0.44460   0.07150   0.09000  Uiso   1.00
C346   C     0.80470   0.45880   0.06430   0.07833  Uani   1.00
C347   C     0.84420   0.43500   0.06870   0.09500  Uani   1.00
H348   H     0.86670   0.44000   0.05530   0.11400  Uiso   1.00
C349   C     0.80010   0.48980   0.04070   0.06333  Uani   1.00
C350   C     0.69240   0.66110   0.11960   0.07867  Uani   1.00
C351   C     0.73490   0.65960   0.10500   0.06600  Uani   1.00
C352   C     0.73840   0.63590   0.08020   0.05767  Uani   1.00
H353   H     0.71370   0.62450   0.07130   0.06900  Uiso   1.00
C354   C     0.77950   0.62770   0.06700   0.06733  Uani   1.00
C355   C     0.81260   0.64710   0.07900   0.08667  Uani   1.00
H356   H     0.83860   0.64660   0.06840   0.10400  Uiso   1.00
C357   C     0.81160   0.66800   0.10600   0.12067  Uani   1.00
C358   C     0.76970   0.67810   0.11690   0.11400  Uani   1.00
H359   H     0.76650   0.69780   0.13260   0.13700  Uiso   1.00
C360   C     0.78450   0.60250   0.04170   0.07233  Uani   1.00
C361   C     0.88880   0.67180   0.11620   0.16933  Uani   1.00
H362   H     0.89940   0.64660   0.10750   0.20300  Uiso   1.00
C363   C     0.60010   0.73730   0.11810   0.07367  Uani   1.00
C364   C     0.90970   0.70400   0.13390   0.17233  Uani   1.00
C365   C     0.47720   0.65690   0.17900   0.10567  Uani   1.00
H366   H     0.48040   0.63770   0.16310   0.12700  Uiso   1.00
C367   C     0.51110   0.67710   0.19090   0.07033  Uani   1.00
C368   C     0.50840   0.69780   0.21780   0.09900  Uani   1.00
H369   H     0.53240   0.70940   0.22740   0.11900  Uiso   1.00
C370   C     0.55180   0.67260   0.17590   0.07200  Uani   1.00
Cu371  Cu    0.10495   0.14495   0.62720   0.05193  Uani   1.00
Cu372  Cu    0.14132   0.19391   0.66816   0.05167  Uani   1.00
O373   O     0.12660   0.09874   0.65158   0.06700  Uani   1.00
O374   O     0.15180   0.13928   0.68780   0.06233  Uani   1.00
O375   O     0.16064   0.14814   0.60668   0.06167  Uani   1.00
O376   O     0.19247   0.18710   0.64342   0.07067  Uani   1.00
O377   O     0.08932   0.19668   0.60981   0.06600  Uani   1.00
O378   O     0.12490   0.24009   0.64197   0.07567  Uani   1.00
O379   O     0.05590   0.14956   0.65235   0.05867  Uani   1.00
O380   O     0.08476   0.19420   0.68747   0.07067  Uani   1.00
O381   O     0.24798   0.08360   0.53033   0.06967  Uani   1.00
O382   O     0.32100   0.09250   0.53090   0.07033  Uani   1.00
O383   O     0.26230   0.99665   0.53027   0.06833  Uani   1.00
O384   O     0.33423   0.00532   0.47018   0.06300  Uani   1.00
N385   N     0.22560   0.03540   0.75900   0.14367  Uani   1.00
N386   N     0.24660   0.07620   0.76310   0.20067  Uani   1.00
N387   N     0.25780   0.06600   0.79230   0.21000  Uani   1.00
N388   N     0.45150   0.86860   0.58860   0.21867  Uani   1.00
N389   N     0.41690   0.88490   0.57620   0.19833  Uani   1.00
N390   N     0.38790   0.88760   0.59850   0.13800  Uani   1.00
N391   N     0.34860   0.18940   0.61600   0.15167  Uani   1.00
N392   N     0.34370   0.22090   0.63680   0.17267  Uani   1.00
N393   N     0.38630   0.22820   0.64430   0.15667  Uani   1.00
C394   C     0.14520   0.10300   0.67430   0.05500  Uani   1.00
C395   C     0.16580   0.06390   0.69160   0.08767  Uani   1.00
C396   C     0.18400   0.06890   0.71700   0.06867  Uani   1.00
H397   H     0.18580   0.09600   0.72600   0.08200  Uiso   1.00
C398   C     0.20060   0.03420   0.73040   0.11133  Uani   1.00
C399   C     0.23740   0.00790   0.77630   0.10267  Uani   1.00
H400   H     0.23320   0.97820   0.77490   0.12300  Uiso   1.00
C401   C     0.25960   0.03150   0.79990   0.13200  Uani   1.00
C402   C     0.27630   0.01430   0.82720   0.15200  Uani   1.00
C403   C     0.28200   0.96960   0.83220   0.16300  Uani   1.00
H404   H     0.27480   0.95020   0.81700   0.19500  Uiso   1.00
C405   C     0.29630   0.95590   0.85600   0.18867  Uani   1.00
C406   C     0.51270   0.82930   0.62760   0.17667  Uani   1.00
H407   H     0.52400   0.84660   0.61240   0.21000  Uiso   1.00
C408   C     0.47250   0.83350   0.63410   0.16000  Uani   1.00
C409   C     0.30280   0.04310   0.84350   0.12667  Uani   1.00
H410   H     0.30070   0.07260   0.83980   0.15200  Uiso   1.00
C411   C     0.44650   0.85570   0.61550   0.15367  Uani   1.00
C412   C     0.39740   0.86320   0.62050   0.13167  Uani   1.00
H413   H     0.37970   0.85250   0.63570   0.15800  Uiso   1.00
C414   C     0.35070   0.90700   0.59000   0.10433  Uani   1.00
C415   C     0.31190   0.89270   0.60810   0.08967  Uani   1.00
H416   H     0.31440   0.87180   0.62300   0.10800  Uiso   1.00
C417   C     0.27140   0.91230   0.60150   0.06367  Uani   1.00
C418   C     0.27070   0.93840   0.57900   0.07500  Uani   1.00
H419   H     0.24340   0.94460   0.57150   0.09000  Uiso   1.00
C420   C     0.30470   0.95880   0.56430   0.07833  Uani   1.00
C421   C     0.34420   0.93500   0.56870   0.09500  Uani   1.00
H422   H     0.36670   0.94000   0.55530   0.11400  Uiso   1.00
C423   C     0.30010   0.98980   0.54070   0.06333  Uani   1.00
C424   C     0.19240   0.16110   0.61960   0.07867  Uani   1.00
C425   C     0.23490   0.15960   0.60500   0.06600  Uani   1.00
C426   C     0.23840   0.13590   0.58020   0.05767  Uani   1.00
H427   H     0.21370   0.12450   0.57130   0.06900  Uiso   1.00
C428   C     0.27950   0.12770   0.56700   0.06733  Uani   1.00
C429   C     0.31260   0.14710   0.57900   0.08667  Uani   1.00
H430   H     0.33860   0.14660   0.56840   0.10400  Uiso   1.00
C431   C     0.31160   0.16800   0.60600   0.12067  Uani   1.00
C432   C     0.26970   0.17810   0.61690   0.11400  Uani   1.00
H433   H     0.26650   0.19780   0.63260   0.13700  Uiso   1.00
C434   C     0.28450   0.10250   0.54170   0.07233  Uani   1.00
C435   C     0.38880   0.17180   0.61620   0.16933  Uani   1.00
H436   H     0.39940   0.14660   0.60750   0.20300  Uiso   1.00
C437   C     0.10010   0.23730   0.61810   0.07367  Uani   1.00
C438   C     0.40970   0.20400   0.63390   0.17233  Uani   1.00
C439   C     0.97720   0.15690   0.67900   0.10567  Uani   1.00
H440   H     0.98040   0.13770   0.66310   0.12700  Uiso   1.00
C441   C     0.01110   0.17710   0.69090   0.07033  Uani   1.00
C442   C     0.00840   0.19780   0.71780   0.09900  Uani   1.00
H443   H     0.03240   0.20940   0.72740   0.11900  Uiso   1.00
C444   C     0.05180   0.17260   0.67590   0.07200  Uani   1.00
Cu445  Cu    0.39505   0.35505   0.12720   0.05193  Uani   1.00
Cu446  Cu    0.35868   0.30609   0.16816   0.05167  Uani   1.00
O447   O     0.37340   0.40126   0.15158   0.06700  Uani   1.00
O448   O     0.34820   0.36072   0.18780   0.06233  Uani   1.00
O449   O     0.33936   0.35186   0.10668   0.06167  Uani   1.00
O450   O     0.30753   0.31290   0.14342   0.07067  Uani   1.00
O451   O     0.41068   0.30332   0.10981   0.06600  Uani   1.00
O452   O     0.37510   0.25991   0.14197   0.07567  Uani   1.00
O453   O     0.44410   0.35044   0.15235   0.05867  Uani   1.00
O454   O     0.41524   0.30580   0.18747   0.07067  Uani   1.00
O455   O     0.25202   0.41640   0.03033   0.06967  Uani   1.00
O456   O     0.17900   0.40750   0.03090   0.07033  Uani   1.00
O457   O     0.23770   0.50335   0.03027   0.06833  Uani   1.00
O458   O     0.16577   0.49468   0.97018   0.06300  Uani   1.00
N459   N     0.27440   0.46460   0.25900   0.14367  Uani   1.00
N460   N     0.25340   0.42380   0.26310   0.20067  Uani   1.00
N461   N     0.24220   0.43400   0.29230   0.21000  Uani   1.00
N462   N     0.04850   0.63140   0.08860   0.21867  Uani   1.00
N463   N     0.08310   0.61510   0.07620   0.19833  Uani   1.00
N464   N     0.11210   0.61240   0.09850   0.13800  Uani   1.00
N465   N     0.15140   0.31060   0.11600   0.15167  Uani   1.00
N466   N     0.15630   0.27910   0.13680   0.17267  Uani   1.00
N467   N     0.11370   0.27180   0.14430   0.15667  Uani   1.00
C468   C     0.35480   0.39700   0.17430   0.05500  Uani   1.00
C469   C     0.33420   0.43610   0.19160   0.08767  Uani   1.00
C470   C     0.31600   0.43110   0.21700   0.06867  Uani   1.00
H471   H     0.31420   0.40400   0.22600   0.08200  Uiso   1.00
C472   C     0.29940   0.46580   0.23040   0.11133  Uani   1.00
C473   C     0.26260   0.49210   0.27630   0.10267  Uani   1.00
H474   H     0.26680   0.52180   0.27490   0.12300  Uiso   1.00
C475   C     0.24040   0.46850   0.29990   0.13200  Uani   1.00
C476   C     0.22370   0.48570   0.32720   0.15200  Uani   1.00
C477   C     0.21800   0.53040   0.33220   0.16300  Uani   1.00
H478   H     0.22520   0.54980   0.31700   0.19500  Uiso   1.00
C479   C     0.20370   0.54410   0.35600   0.18867  Uani   1.00
C480   C     0.98730   0.67070   0.12760   0.17667  Uani   1.00
H481   H     0.97600   0.65340   0.11240   0.21000  Uiso   1.00
C482   C     0.02750   0.66650   0.13410   0.16000  Uani   1.00
C483   C     0.19720   0.45690   0.34350   0.12667  Uani   1.00
H484   H     0.19930   0.42740   0.33980   0.15200  Uiso   1.00
C485   C     0.05350   0.64430   0.11550   0.15367  Uani   1.00
C486   C     0.10260   0.63680   0.12050   0.13167  Uani   1.00
H487   H     0.12030   0.64750   0.13570   0.15800  Uiso   1.00
C488   C     0.14930   0.59300   0.09000   0.10433  Uani   1.00
C489   C     0.18810   0.60730   0.10810   0.08967  Uani   1.00
H490   H     0.18560   0.62820   0.12300   0.10800  Uiso   1.00
C491   C     0.22860   0.58770   0.10150   0.06367  Uani   1.00
C492   C     0.22930   0.56160   0.07900   0.07500  Uani   1.00
H493   H     0.25660   0.55540   0.07150   0.09000  Uiso   1.00
C494   C     0.19530   0.54120   0.06430   0.07833  Uani   1.00
C495   C     0.15580   0.56500   0.06870   0.09500  Uani   1.00
H496   H     0.13330   0.56000   0.05530   0.11400  Uiso   1.00
C497   C     0.19990   0.51020   0.04070   0.06333  Uani   1.00
C498   C     0.30760   0.33890   0.11960   0.07867  Uani   1.00
C499   C     0.26510   0.34040   0.10500   0.06600  Uani   1.00
C500   C     0.26160   0.36410   0.08020   0.05767  Uani   1.00
H501   H     0.28630   0.37550   0.07130   0.06900  Uiso   1.00
C502   C     0.22050   0.37230   0.06700   0.06733  Uani   1.00
C503   C     0.18740   0.35290   0.07900   0.08667  Uani   1.00
H504   H     0.16140   0.35340   0.06840   0.10400  Uiso   1.00
C505   C     0.18840   0.33200   0.10600   0.12067  Uani   1.00
C506   C     0.23030   0.32190   0.11690   0.11400  Uani   1.00
H507   H     0.23350   0.30220   0.13260   0.13700  Uiso   1.00
C508   C     0.21550   0.39750   0.04170   0.07233  Uani   1.00
C509   C     0.11120   0.32820   0.11620   0.16933  Uani   1.00
H510   H     0.10060   0.35340   0.10750   0.20300  Uiso   1.00
C511   C     0.39990   0.26270   0.11810   0.07367  Uani   1.00
C512   C     0.09030   0.29600   0.13390   0.17233  Uani   1.00
C513   C     0.52280   0.34310   0.17900   0.10567  Uani   1.00
H514   H     0.51960   0.36230   0.16310   0.12700  Uiso   1.00
C515   C     0.48890   0.32290   0.19090   0.07033  Uani   1.00
C516   C     0.49160   0.30220   0.21780   0.09900  Uani   1.00
H517   H     0.46760   0.29060   0.22740   0.11900  Uiso   1.00
C518   C     0.44820   0.32740   0.17590   0.07200  Uani   1.00
Cu519  Cu    0.89505   0.85505   0.62720   0.05193  Uani   1.00
Cu520  Cu    0.85868   0.80609   0.66816   0.05167  Uani   1.00
O521   O     0.87340   0.90126   0.65158   0.06700  Uani   1.00
O522   O     0.84820   0.86072   0.68780   0.06233  Uani   1.00
O523   O     0.83936   0.85186   0.60668   0.06167  Uani   1.00
O524   O     0.80753   0.81290   0.64342   0.07067  Uani   1.00
O525   O     0.91068   0.80332   0.60981   0.06600  Uani   1.00
O526   O     0.87510   0.75991   0.64197   0.07567  Uani   1.00
O527   O     0.94410   0.85044   0.65235   0.05867  Uani   1.00
O528   O     0.91524   0.80580   0.68747   0.07067  Uani   1.00
O529   O     0.75202   0.91640   0.53033   0.06967  Uani   1.00
O530   O     0.67900   0.90750   0.53090   0.07033  Uani   1.00
O531   O     0.73770   0.00335   0.53027   0.06833  Uani   1.00
O532   O     0.66577   0.99468   0.47018   0.06300  Uani   1.00
N533   N     0.77440   0.96460   0.75900   0.14367  Uani   1.00
N534   N     0.75340   0.92380   0.76310   0.20067  Uani   1.00
N535   N     0.74220   0.93400   0.79230   0.21000  Uani   1.00
N536   N     0.54850   0.13140   0.58860   0.21867  Uani   1.00
N537   N     0.58310   0.11510   0.57620   0.19833  Uani   1.00
N538   N     0.61210   0.11240   0.59850   0.13800  Uani   1.00
N539   N     0.65140   0.81060   0.61600   0.15167  Uani   1.00
N540   N     0.65630   0.77910   0.63680   0.17267  Uani   1.00
N541   N     0.61370   0.77180   0.64430   0.15667  Uani   1.00
C542   C     0.85480   0.89700   0.67430   0.05500  Uani   1.00
C543   C     0.83420   0.93610   0.69160   0.08767  Uani   1.00
C544   C     0.81600   0.93110   0.71700   0.06867  Uani   1.00
H545   H     0.81420   0.90400   0.72600   0.08200  Uiso   1.00
C546   C     0.79940   0.96580   0.73040   0.11133  Uani   1.00
C547   C     0.76260   0.99210   0.77630   0.10267  Uani   1.00
H548   H     0.76680   0.02180   0.77490   0.12300  Uiso   1.00
C549   C     0.74040   0.96850   0.79990   0.13200  Uani   1.00
C550   C     0.72370   0.98570   0.82720   0.15200  Uani   1.00
C551   C     0.71800   0.03040   0.83220   0.16300  Uani   1.00
H552   H     0.72520   0.04980   0.81700   0.19500  Uiso   1.00
C553   C     0.70370   0.04410   0.85600   0.18867  Uani   1.00
C554   C     0.48730   0.17070   0.62760   0.17667  Uani   1.00
H555   H     0.47600   0.15340   0.61240   0.21000  Uiso   1.00
C556   C     0.52750   0.16650   0.63410   0.16000  Uani   1.00
C557   C     0.69720   0.95690   0.84350   0.12667  Uani   1.00
H558   H     0.69930   0.92740   0.83980   0.15200  Uiso   1.00
C559   C     0.55350   0.14430   0.61550   0.15367  Uani   1.00
C560   C     0.60260   0.13680   0.62050   0.13167  Uani   1.00
H561   H     0.62030   0.14750   0.63570   0.15800  Uiso   1.00
C562   C     0.64930   0.09300   0.59000   0.10433  Uani   1.00
C563   C     0.68810   0.10730   0.60810   0.08967  Uani   1.00
H564   H     0.68560   0.12820   0.62300   0.10800  Uiso   1.00
C565   C     0.72860   0.08770   0.60150   0.06367  Uani   1.00
C566   C     0.72930   0.06160   0.57900   0.07500  Uani   1.00
H567   H     0.75660   0.05540   0.57150   0.09000  Uiso   1.00
C568   C     0.69530   0.04120   0.56430   0.07833  Uani   1.00
C569   C     0.65580   0.06500   0.56870   0.09500  Uani   1.00
H570   H     0.63330   0.06000   0.55530   0.11400  Uiso   1.00
C571   C     0.69990   0.01020   0.54070   0.06333  Uani   1.00
C572   C     0.80760   0.83890   0.61960   0.07867  Uani   1.00
C573   C     0.76510   0.84040   0.60500   0.06600  Uani   1.00
C574   C     0.76160   0.86410   0.58020   0.05767  Uani   1.00
H575   H     0.78630   0.87550   0.57130   0.06900  Uiso   1.00
C576   C     0.72050   0.87230   0.56700   0.06733  Uani   1.00
C577   C     0.68740   0.85290   0.57900   0.08667  Uani   1.00
H578   H     0.66140   0.85340   0.56840   0.10400  Uiso   1.00
C579   C     0.68840   0.83200   0.60600   0.12067  Uani   1.00
C580   C     0.73030   0.82190   0.61690   0.11400  Uani   1.00
H581   H     0.73350   0.80220   0.63260   0.13700  Uiso   1.00
C582   C     0.71550   0.89750   0.54170   0.07233  Uani   1.00
C583   C     0.61120   0.82820   0.61620   0.16933  Uani   1.00
H584   H     0.60060   0.85340   0.60750   0.20300  Uiso   1.00
C585   C     0.89990   0.76270   0.61810   0.07367  Uani   1.00
C586   C     0.59030   0.79600   0.63390   0.17233  Uani   1.00
C587   C     0.02280   0.84310   0.67900   0.10567  Uani   1.00
H588   H     0.01960   0.86230   0.66310   0.12700  Uiso   1.00
C589   C     0.98890   0.82290   0.69090   0.07033  Uani   1.00
C590   C     0.99160   0.80220   0.71780   0.09900  Uani   1.00
H591   H     0.96760   0.79060   0.72740   0.11900  Uiso   1.00
C592   C     0.94820   0.82740   0.67590   0.07200  Uani   1.00
Cu593  Cu    0.35505   0.60495   0.87280   0.05193  Uani   1.00
Cu594  Cu    0.30609   0.64132   0.83184   0.05167  Uani   1.00
O595   O     0.40126   0.62660   0.84842   0.06700  Uani   1.00
O596   O     0.36072   0.65180   0.81220   0.06233  Uani   1.00
O597   O     0.35186   0.66064   0.89332   0.06167  Uani   1.00
O598   O     0.31290   0.69247   0.85658   0.07067  Uani   1.00
O599   O     0.30332   0.58932   0.89019   0.06600  Uani   1.00
O600   O     0.25991   0.62490   0.85803   0.07567  Uani   1.00
O601   O     0.35044   0.55590   0.84765   0.05867  Uani   1.00
O602   O     0.30580   0.58476   0.81253   0.07067  Uani   1.00
O603   O     0.41640   0.74798   0.96967   0.06967  Uani   1.00
O604   O     0.40750   0.82100   0.96910   0.07033  Uani   1.00
O605   O     0.50335   0.76230   0.96973   0.06833  Uani   1.00
O606   O     0.49468   0.83423   0.02982   0.06300  Uani   1.00
N607   N     0.46460   0.72560   0.74100   0.14367  Uani   1.00
N608   N     0.42380   0.74660   0.73690   0.20067  Uani   1.00
N609   N     0.43400   0.75780   0.70770   0.21000  Uani   1.00
N610   N     0.63140   0.95150   0.91140   0.21867  Uani   1.00
N611   N     0.61510   0.91690   0.92380   0.19833  Uani   1.00
N612   N     0.61240   0.88790   0.90150   0.13800  Uani   1.00
N613   N     0.31060   0.84860   0.88400   0.15167  Uani   1.00
N614   N     0.27910   0.84370   0.86320   0.17267  Uani   1.00
N615   N     0.27180   0.88630   0.85570   0.15667  Uani   1.00
C616   C     0.39700   0.64520   0.82570   0.05500  Uani   1.00
C617   C     0.43610   0.66580   0.80840   0.08767  Uani   1.00
C618   C     0.43110   0.68400   0.78300   0.06867  Uani   1.00
H619   H     0.40400   0.68580   0.77400   0.08200  Uiso   1.00
C620   C     0.46580   0.70060   0.76960   0.11133  Uani   1.00
C621   C     0.49210   0.73740   0.72370   0.10267  Uani   1.00
H622   H     0.52180   0.73320   0.72510   0.12300  Uiso   1.00
C623   C     0.46850   0.75960   0.70010   0.13200  Uani   1.00
C624   C     0.48570   0.77630   0.67280   0.15200  Uani   1.00
C625   C     0.53040   0.78200   0.66780   0.16300  Uani   1.00
H626   H     0.54980   0.77480   0.68300   0.19500  Uiso   1.00
C627   C     0.54410   0.79630   0.64400   0.18867  Uani   1.00
C628   C     0.67070   0.01270   0.87240   0.17667  Uani   1.00
H629   H     0.65340   0.02400   0.88760   0.21000  Uiso   1.00
C630   C     0.66650   0.97250   0.86590   0.16000  Uani   1.00
C631   C     0.45690   0.80280   0.65650   0.12667  Uani   1.00
H632   H     0.42740   0.80070   0.66020   0.15200  Uiso   1.00
C633   C     0.64430   0.94650   0.88450   0.15367  Uani   1.00
C634   C     0.63680   0.89740   0.87950   0.13167  Uani   1.00
H635   H     0.64750   0.87970   0.86430   0.15800  Uiso   1.00
C636   C     0.59300   0.85070   0.91000   0.10433  Uani   1.00
C637   C     0.60730   0.81190   0.89190   0.08967  Uani   1.00
H638   H     0.62820   0.81440   0.87700   0.10800  Uiso   1.00
C639   C     0.58770   0.77140   0.89850   0.06367  Uani   1.00
C640   C     0.56160   0.77070   0.92100   0.07500  Uani   1.00
H641   H     0.55540   0.74340   0.92850   0.09000  Uiso   1.00
C642   C     0.54120   0.80470   0.93570   0.07833  Uani   1.00
C643   C     0.56500   0.84420   0.93130   0.09500  Uani   1.00
H644   H     0.56000   0.86670   0.94470   0.11400  Uiso   1.00
C645   C     0.51020   0.80010   0.95930   0.06333  Uani   1.00
C646   C     0.33890   0.69240   0.88040   0.07867  Uani   1.00
C647   C     0.34040   0.73490   0.89500   0.06600  Uani   1.00
C648   C     0.36410   0.73840   0.91980   0.05767  Uani   1.00
H649   H     0.37550   0.71370   0.92870   0.06900  Uiso   1.00
C650   C     0.37230   0.77950   0.93300   0.06733  Uani   1.00
C651   C     0.35290   0.81260   0.92100   0.08667  Uani   1.00
H652   H     0.35340   0.83860   0.93160   0.10400  Uiso   1.00
C653   C     0.33200   0.81160   0.89400   0.12067  Uani   1.00
C654   C     0.32190   0.76970   0.88310   0.11400  Uani   1.00
H655   H     0.30220   0.76650   0.86740   0.13700  Uiso   1.00
C656   C     0.39750   0.78450   0.95830   0.07233  Uani   1.00
C657   C     0.32820   0.88880   0.88380   0.16933  Uani   1.00
H658   H     0.35340   0.89940   0.89250   0.20300  Uiso   1.00
C659   C     0.26270   0.60010   0.88190   0.07367  Uani   1.00
C660   C     0.29600   0.90970   0.86610   0.17233  Uani   1.00
C661   C     0.34310   0.47720   0.82100   0.10567  Uani   1.00
H662   H     0.36230   0.48040   0.83690   0.12700  Uiso   1.00
C663   C     0.32290   0.51110   0.80910   0.07033  Uani   1.00
C664   C     0.30220   0.50840   0.78220   0.09900  Uani   1.00
H665   H     0.29060   0.53240   0.77260   0.11900  Uiso   1.00
C666   C     0.32740   0.55180   0.82410   0.07200  Uani   1.00
Cu667  Cu    0.85505   0.10495   0.37280   0.05193  Uani   1.00
Cu668  Cu    0.80609   0.14132   0.33184   0.05167  Uani   1.00
O669   O     0.90126   0.12660   0.34842   0.06700  Uani   1.00
O670   O     0.86072   0.15180   0.31220   0.06233  Uani   1.00
O671   O     0.85186   0.16064   0.39332   0.06167  Uani   1.00
O672   O     0.81290   0.19247   0.35658   0.07067  Uani   1.00
O673   O     0.80332   0.08932   0.39019   0.06600  Uani   1.00
O674   O     0.75991   0.12490   0.35803   0.07567  Uani   1.00
O675   O     0.85044   0.05590   0.34765   0.05867  Uani   1.00
O676   O     0.80580   0.08476   0.31253   0.07067  Uani   1.00
O677   O     0.91640   0.24798   0.46967   0.06967  Uani   1.00
O678   O     0.90750   0.32100   0.46910   0.07033  Uani   1.00
O679   O     0.00335   0.26230   0.46973   0.06833  Uani   1.00
O680   O     0.99468   0.33423   0.52982   0.06300  Uani   1.00
N681   N     0.96460   0.22560   0.24100   0.14367  Uani   1.00
N682   N     0.92380   0.24660   0.23690   0.20067  Uani   1.00
N683   N     0.93400   0.25780   0.20770   0.21000  Uani   1.00
N684   N     0.13140   0.45150   0.41140   0.21867  Uani   1.00
N685   N     0.11510   0.41690   0.42380   0.19833  Uani   1.00
N686   N     0.11240   0.38790   0.40150   0.13800  Uani   1.00
N687   N     0.81060   0.34860   0.38400   0.15167  Uani   1.00
N688   N     0.77910   0.34370   0.36320   0.17267  Uani   1.00
N689   N     0.77180   0.38630   0.35570   0.15667  Uani   1.00
C690   C     0.89700   0.14520   0.32570   0.05500  Uani   1.00
C691   C     0.93610   0.16580   0.30840   0.08767  Uani   1.00
C692   C     0.93110   0.18400   0.28300   0.06867  Uani   1.00
H693   H     0.90400   0.18580   0.27400   0.08200  Uiso   1.00
C694   C     0.96580   0.20060   0.26960   0.11133  Uani   1.00
C695   C     0.99210   0.23740   0.22370   0.10267  Uani   1.00
H696   H     0.02180   0.23320   0.22510   0.12300  Uiso   1.00
C697   C     0.96850   0.25960   0.20010   0.13200  Uani   1.00
C698   C     0.98570   0.27630   0.17280   0.15200  Uani   1.00
C699   C     0.03040   0.28200   0.16780   0.16300  Uani   1.00
H700   H     0.04980   0.27480   0.18300   0.19500  Uiso   1.00
C701   C     0.04410   0.29630   0.14400   0.18867  Uani   1.00
C702   C     0.17070   0.51270   0.37240   0.17667  Uani   1.00
H703   H     0.15340   0.52400   0.38760   0.21000  Uiso   1.00
C704   C     0.16650   0.47250   0.36590   0.16000  Uani   1.00
C705   C     0.95690   0.30280   0.15650   0.12667  Uani   1.00
H706   H     0.92740   0.30070   0.16020   0.15200  Uiso   1.00
C707   C     0.14430   0.44650   0.38450   0.15367  Uani   1.00
C708   C     0.13680   0.39740   0.37950   0.13167  Uani   1.00
H709   H     0.14750   0.37970   0.36430   0.15800  Uiso   1.00
C710   C     0.09300   0.35070   0.41000   0.10433  Uani   1.00
C711   C     0.10730   0.31190   0.39190   0.08967  Uani   1.00
H712   H     0.12820   0.31440   0.37700   0.10800  Uiso   1.00
C713   C     0.08770   0.27140   0.39850   0.06367  Uani   1.00
C714   C     0.06160   0.27070   0.42100   0.07500  Uani   1.00
H715   H     0.05540   0.24340   0.42850   0.09000  Uiso   1.00
C716   C     0.04120   0.30470   0.43570   0.07833  Uani   1.00
C717   C     0.06500   0.34420   0.43130   0.09500  Uani   1.00
H718   H     0.06000   0.36670   0.44470   0.11400  Uiso   1.00
C719   C     0.01020   0.30010   0.45930   0.06333  Uani   1.00
C720   C     0.83890   0.19240   0.38040   0.07867  Uani   1.00
C721   C     0.84040   0.23490   0.39500   0.06600  Uani   1.00
C722   C     0.86410   0.23840   0.41980   0.05767  Uani   1.00
H723   H     0.87550   0.21370   0.42870   0.06900  Uiso   1.00
C724   C     0.87230   0.27950   0.43300   0.06733  Uani   1.00
C725   C     0.85290   0.31260   0.42100   0.08667  Uani   1.00
H726   H     0.85340   0.33860   0.43160   0.10400  Uiso   1.00
C727   C     0.83200   0.31160   0.39400   0.12067  Uani   1.00
C728   C     0.82190   0.26970   0.38310   0.11400  Uani   1.00
H729   H     0.80220   0.26650   0.36740   0.13700  Uiso   1.00
C730   C     0.89750   0.28450   0.45830   0.07233  Uani   1.00
C731   C     0.82820   0.38880   0.38380   0.16933  Uani   1.00
H732   H     0.85340   0.39940   0.39250   0.20300  Uiso   1.00
C733   C     0.76270   0.10010   0.38190   0.07367  Uani   1.00
C734   C     0.79600   0.40970   0.36610   0.17233  Uani   1.00
C735   C     0.84310   0.97720   0.32100   0.10567  Uani   1.00
H736   H     0.86230   0.98040   0.33690   0.12700  Uiso   1.00
C737   C     0.82290   0.01110   0.30910   0.07033  Uani   1.00
C738   C     0.80220   0.00840   0.28220   0.09900  Uani   1.00
H739   H     0.79060   0.03240   0.27260   0.11900  Uiso   1.00
C740   C     0.82740   0.05180   0.32410   0.07200  Uani   1.00
Cu741  Cu    0.64495   0.39505   0.87280   0.05193  Uani   1.00
Cu742  Cu    0.69391   0.35868   0.83184   0.05167  Uani   1.00
O743   O     0.59874   0.37340   0.84842   0.06700  Uani   1.00
O744   O     0.63928   0.34820   0.81220   0.06233  Uani   1.00
O745   O     0.64814   0.33936   0.89332   0.06167  Uani   1.00
O746   O     0.68710   0.30753   0.85658   0.07067  Uani   1.00
O747   O     0.69668   0.41068   0.89019   0.06600  Uani   1.00
O748   O     0.74009   0.37510   0.85803   0.07567  Uani   1.00
O749   O     0.64956   0.44410   0.84765   0.05867  Uani   1.00
O750   O     0.69420   0.41524   0.81253   0.07067  Uani   1.00
O751   O     0.58360   0.25202   0.96967   0.06967  Uani   1.00
O752   O     0.59250   0.17900   0.96910   0.07033  Uani   1.00
O753   O     0.49665   0.23770   0.96973   0.06833  Uani   1.00
O754   O     0.50532   0.16577   0.02982   0.06300  Uani   1.00
N755   N     0.53540   0.27440   0.74100   0.14367  Uani   1.00
N756   N     0.57620   0.25340   0.73690   0.20067  Uani   1.00
N757   N     0.56600   0.24220   0.70770   0.21000  Uani   1.00
N758   N     0.36860   0.04850   0.91140   0.21867  Uani   1.00
N759   N     0.38490   0.08310   0.92380   0.19833  Uani   1.00
N760   N     0.38760   0.11210   0.90150   0.13800  Uani   1.00
N761   N     0.68940   0.15140   0.88400   0.15167  Uani   1.00
N762   N     0.72090   0.15630   0.86320   0.17267  Uani   1.00
N763   N     0.72820   0.11370   0.85570   0.15667  Uani   1.00
C764   C     0.60300   0.35480   0.82570   0.05500  Uani   1.00
C765   C     0.56390   0.33420   0.80840   0.08767  Uani   1.00
C766   C     0.56890   0.31600   0.78300   0.06867  Uani   1.00
H767   H     0.59600   0.31420   0.77400   0.08200  Uiso   1.00
C768   C     0.53420   0.29940   0.76960   0.11133  Uani   1.00
C769   C     0.50790   0.26260   0.72370   0.10267  Uani   1.00
H770   H     0.47820   0.26680   0.72510   0.12300  Uiso   1.00
C771   C     0.53150   0.24040   0.70010   0.13200  Uani   1.00
C772   C     0.51430   0.22370   0.67280   0.15200  Uani   1.00
C773   C     0.46960   0.21800   0.66780   0.16300  Uani   1.00
H774   H     0.45020   0.22520   0.68300   0.19500  Uiso   1.00
C775   C     0.45590   0.20370   0.64400   0.18867  Uani   1.00
C776   C     0.32930   0.98730   0.87240   0.17667  Uani   1.00
H777   H     0.34660   0.97600   0.88760   0.21000  Uiso   1.00
C778   C     0.33350   0.02750   0.86590   0.16000  Uani   1.00
C779   C     0.54310   0.19720   0.65650   0.12667  Uani   1.00
H780   H     0.57260   0.19930   0.66020   0.15200  Uiso   1.00
C781   C     0.35570   0.05350   0.88450   0.15367  Uani   1.00
C782   C     0.36320   0.10260   0.87950   0.13167  Uani   1.00
H783   H     0.35250   0.12030   0.86430   0.15800  Uiso   1.00
C784   C     0.40700   0.14930   0.91000   0.10433  Uani   1.00
C785   C     0.39270   0.18810   0.89190   0.08967  Uani   1.00
H786   H     0.37180   0.18560   0.87700   0.10800  Uiso   1.00
C787   C     0.41230   0.22860   0.89850   0.06367  Uani   1.00
C788   C     0.43840   0.22930   0.92100   0.07500  Uani   1.00
H789   H     0.44460   0.25660   0.92850   0.09000  Uiso   1.00
C790   C     0.45880   0.19530   0.93570   0.07833  Uani   1.00
C791   C     0.43500   0.15580   0.93130   0.09500  Uani   1.00
H792   H     0.44000   0.13330   0.94470   0.11400  Uiso   1.00
C793   C     0.48980   0.19990   0.95930   0.06333  Uani   1.00
C794   C     0.66110   0.30760   0.88040   0.07867  Uani   1.00
C795   C     0.65960   0.26510   0.89500   0.06600  Uani   1.00
C796   C     0.63590   0.26160   0.91980   0.05767  Uani   1.00
H797   H     0.62450   0.28630   0.92870   0.06900  Uiso   1.00
C798   C     0.62770   0.22050   0.93300   0.06733  Uani   1.00
C799   C     0.64710   0.18740   0.92100   0.08667  Uani   1.00
H800   H     0.64660   0.16140   0.93160   0.10400  Uiso   1.00
C801   C     0.66800   0.18840   0.89400   0.12067  Uani   1.00
C802   C     0.67810   0.23030   0.88310   0.11400  Uani   1.00
H803   H     0.69780   0.23350   0.86740   0.13700  Uiso   1.00
C804   C     0.60250   0.21550   0.95830   0.07233  Uani   1.00
C805   C     0.67180   0.11120   0.88380   0.16933  Uani   1.00
H806   H     0.64660   0.10060   0.89250   0.20300  Uiso   1.00
C807   C     0.73730   0.39990   0.88190   0.07367  Uani   1.00
C808   C     0.70400   0.09030   0.86610   0.17233  Uani   1.00
C809   C     0.65690   0.52280   0.82100   0.10567  Uani   1.00
H810   H     0.63770   0.51960   0.83690   0.12700  Uiso   1.00
C811   C     0.67710   0.48890   0.80910   0.07033  Uani   1.00
C812   C     0.69780   0.49160   0.78220   0.09900  Uani   1.00
H813   H     0.70940   0.46760   0.77260   0.11900  Uiso   1.00
C814   C     0.67260   0.44820   0.82410   0.07200  Uani   1.00
Cu815  Cu    0.14495   0.89505   0.37280   0.05193  Uani   1.00
Cu816  Cu    0.19391   0.85868   0.33184   0.05167  Uani   1.00
O817   O     0.09874   0.87340   0.34842   0.06700  Uani   1.00
O818   O     0.13928   0.84820   0.31220   0.06233  Uani   1.00
O819   O     0.14814   0.83936   0.39332   0.06167  Uani   1.00
O820   O     0.18710   0.80753   0.35658   0.07067  Uani   1.00
O821   O     0.19668   0.91068   0.39019   0.06600  Uani   1.00
O822   O     0.24009   0.87510   0.35803   0.07567  Uani   1.00
O823   O     0.14956   0.94410   0.34765   0.05867  Uani   1.00
O824   O     0.19420   0.91524   0.31253   0.07067  Uani   1.00
O825   O     0.08360   0.75202   0.46967   0.06967  Uani   1.00
O826   O     0.09250   0.67900   0.46910   0.07033  Uani   1.00
O827   O     0.99665   0.73770   0.46973   0.06833  Uani   1.00
O828   O     0.00532   0.66577   0.52982   0.06300  Uani   1.00
N829   N     0.03540   0.77440   0.24100   0.14367  Uani   1.00
N830   N     0.07620   0.75340   0.23690   0.20067  Uani   1.00
N831   N     0.06600   0.74220   0.20770   0.21000  Uani   1.00
N832   N     0.86860   0.54850   0.41140   0.21867  Uani   1.00
N833   N     0.88490   0.58310   0.42380   0.19833  Uani   1.00
N834   N     0.88760   0.61210   0.40150   0.13800  Uani   1.00
N835   N     0.18940   0.65140   0.38400   0.15167  Uani   1.00
N836   N     0.22090   0.65630   0.36320   0.17267  Uani   1.00
N837   N     0.22820   0.61370   0.35570   0.15667  Uani   1.00
C838   C     0.10300   0.85480   0.32570   0.05500  Uani   1.00
C839   C     0.06390   0.83420   0.30840   0.08767  Uani   1.00
C840   C     0.06890   0.81600   0.28300   0.06867  Uani   1.00
H841   H     0.09600   0.81420   0.27400   0.08200  Uiso   1.00
C842   C     0.03420   0.79940   0.26960   0.11133  Uani   1.00
C843   C     0.00790   0.76260   0.22370   0.10267  Uani   1.00
H844   H     0.97820   0.76680   0.22510   0.12300  Uiso   1.00
C845   C     0.03150   0.74040   0.20010   0.13200  Uani   1.00
C846   C     0.01430   0.72370   0.17280   0.15200  Uani   1.00
C847   C     0.96960   0.71800   0.16780   0.16300  Uani   1.00
H848   H     0.95020   0.72520   0.18300   0.19500  Uiso   1.00
C849   C     0.95590   0.70370   0.14400   0.18867  Uani   1.00
C850   C     0.82930   0.48730   0.37240   0.17667  Uani   1.00
H851   H     0.84660   0.47600   0.38760   0.21000  Uiso   1.00
C852   C     0.83350   0.52750   0.36590   0.16000  Uani   1.00
C853   C     0.04310   0.69720   0.15650   0.12667  Uani   1.00
H854   H     0.07260   0.69930   0.16020   0.15200  Uiso   1.00
C855   C     0.85570   0.55350   0.38450   0.15367  Uani   1.00
C856   C     0.86320   0.60260   0.37950   0.13167  Uani   1.00
H857   H     0.85250   0.62030   0.36430   0.15800  Uiso   1.00
C858   C     0.90700   0.64930   0.41000   0.10433  Uani   1.00
C859   C     0.89270   0.68810   0.39190   0.08967  Uani   1.00
H860   H     0.87180   0.68560   0.37700   0.10800  Uiso   1.00
C861   C     0.91230   0.72860   0.39850   0.06367  Uani   1.00
C862   C     0.93840   0.72930   0.42100   0.07500  Uani   1.00
H863   H     0.94460   0.75660   0.42850   0.09000  Uiso   1.00
C864   C     0.95880   0.69530   0.43570   0.07833  Uani   1.00
C865   C     0.93500   0.65580   0.43130   0.09500  Uani   1.00
H866   H     0.94000   0.63330   0.44470   0.11400  Uiso   1.00
C867   C     0.98980   0.69990   0.45930   0.06333  Uani   1.00
C868   C     0.16110   0.80760   0.38040   0.07867  Uani   1.00
C869   C     0.15960   0.76510   0.39500   0.06600  Uani   1.00
C870   C     0.13590   0.76160   0.41980   0.05767  Uani   1.00
H871   H     0.12450   0.78630   0.42870   0.06900  Uiso   1.00
C872   C     0.12770   0.72050   0.43300   0.06733  Uani   1.00
C873   C     0.14710   0.68740   0.42100   0.08667  Uani   1.00
H874   H     0.14660   0.66140   0.43160   0.10400  Uiso   1.00
C875   C     0.16800   0.68840   0.39400   0.12067  Uani   1.00
C876   C     0.17810   0.73030   0.38310   0.11400  Uani   1.00
H877   H     0.19780   0.73350   0.36740   0.13700  Uiso   1.00
C878   C     0.10250   0.71550   0.45830   0.07233  Uani   1.00
C879   C     0.17180   0.61120   0.38380   0.16933  Uani   1.00
H880   H     0.14660   0.60060   0.39250   0.20300  Uiso   1.00
C881   C     0.23730   0.89990   0.38190   0.07367  Uani   1.00
C882   C     0.20400   0.59030   0.36610   0.17233  Uani   1.00
C883   C     0.15690   0.02280   0.32100   0.10567  Uani   1.00
H884   H     0.13770   0.01960   0.33690   0.12700  Uiso   1.00
C885   C     0.17710   0.98890   0.30910   0.07033  Uani   1.00
C886   C     0.19780   0.99160   0.28220   0.09900  Uani   1.00
H887   H     0.20940   0.96760   0.27260   0.11900  Uiso   1.00
C888   C     0.17260   0.94820   0.32410   0.07200  Uani   1.00
Cu889  Cu    0.39505   0.35505   0.87280   0.05193  Uani   1.00
Cu890  Cu    0.35868   0.30609   0.83184   0.05167  Uani   1.00
O891   O     0.37340   0.40126   0.84842   0.06700  Uani   1.00
O892   O     0.34820   0.36072   0.81220   0.06233  Uani   1.00
O893   O     0.33936   0.35186   0.89332   0.06167  Uani   1.00
O894   O     0.30753   0.31290   0.85658   0.07067  Uani   1.00
O895   O     0.41068   0.30332   0.89019   0.06600  Uani   1.00
O896   O     0.37510   0.25991   0.85803   0.07567  Uani   1.00
O897   O     0.44410   0.35044   0.84765   0.05867  Uani   1.00
O898   O     0.41524   0.30580   0.81253   0.07067  Uani   1.00
O899   O     0.25202   0.41640   0.96967   0.06967  Uani   1.00
O900   O     0.17900   0.40750   0.96910   0.07033  Uani   1.00
O901   O     0.23770   0.50335   0.96973   0.06833  Uani   1.00
O902   O     0.16577   0.49468   0.02982   0.06300  Uani   1.00
N903   N     0.27440   0.46460   0.74100   0.14367  Uani   1.00
N904   N     0.25340   0.42380   0.73690   0.20067  Uani   1.00
N905   N     0.24220   0.43400   0.70770   0.21000  Uani   1.00
N906   N     0.04850   0.63140   0.91140   0.21867  Uani   1.00
N907   N     0.08310   0.61510   0.92380   0.19833  Uani   1.00
N908   N     0.11210   0.61240   0.90150   0.13800  Uani   1.00
N909   N     0.15140   0.31060   0.88400   0.15167  Uani   1.00
N910   N     0.15630   0.27910   0.86320   0.17267  Uani   1.00
N911   N     0.11370   0.27180   0.85570   0.15667  Uani   1.00
C912   C     0.35480   0.39700   0.82570   0.05500  Uani   1.00
C913   C     0.33420   0.43610   0.80840   0.08767  Uani   1.00
C914   C     0.31600   0.43110   0.78300   0.06867  Uani   1.00
H915   H     0.31420   0.40400   0.77400   0.08200  Uiso   1.00
C916   C     0.29940   0.46580   0.76960   0.11133  Uani   1.00
C917   C     0.26260   0.49210   0.72370   0.10267  Uani   1.00
H918   H     0.26680   0.52180   0.72510   0.12300  Uiso   1.00
C919   C     0.24040   0.46850   0.70010   0.13200  Uani   1.00
C920   C     0.22370   0.48570   0.67280   0.15200  Uani   1.00
C921   C     0.21800   0.53040   0.66780   0.16300  Uani   1.00
H922   H     0.22520   0.54980   0.68300   0.19500  Uiso   1.00
C923   C     0.20370   0.54410   0.64400   0.18867  Uani   1.00
C924   C     0.98730   0.67070   0.87240   0.17667  Uani   1.00
H925   H     0.97600   0.65340   0.88760   0.21000  Uiso   1.00
C926   C     0.02750   0.66650   0.86590   0.16000  Uani   1.00
C927   C     0.19720   0.45690   0.65650   0.12667  Uani   1.00
H928   H     0.19930   0.42740   0.66020   0.15200  Uiso   1.00
C929   C     0.05350   0.64430   0.88450   0.15367  Uani   1.00
C930   C     0.10260   0.63680   0.87950   0.13167  Uani   1.00
H931   H     0.12030   0.64750   0.86430   0.15800  Uiso   1.00
C932   C     0.14930   0.59300   0.91000   0.10433  Uani   1.00
C933   C     0.18810   0.60730   0.89190   0.08967  Uani   1.00
H934   H     0.18560   0.62820   0.87700   0.10800  Uiso   1.00
C935   C     0.22860   0.58770   0.89850   0.06367  Uani   1.00
C936   C     0.22930   0.56160   0.92100   0.07500  Uani   1.00
H937   H     0.25660   0.55540   0.92850   0.09000  Uiso   1.00
C938   C     0.19530   0.54120   0.93570   0.07833  Uani   1.00
C939   C     0.15580   0.56500   0.93130   0.09500  Uani   1.00
H940   H     0.13330   0.56000   0.94470   0.11400  Uiso   1.00
C941   C     0.19990   0.51020   0.95930   0.06333  Uani   1.00
C942   C     0.30760   0.33890   0.88040   0.07867  Uani   1.00
C943   C     0.26510   0.34040   0.89500   0.06600  Uani   1.00
C944   C     0.26160   0.36410   0.91980   0.05767  Uani   1.00
H945   H     0.28630   0.37550   0.92870   0.06900  Uiso   1.00
C946   C     0.22050   0.37230   0.93300   0.06733  Uani   1.00
C947   C     0.18740   0.35290   0.92100   0.08667  Uani   1.00
H948   H     0.16140   0.35340   0.93160   0.10400  Uiso   1.00
C949   C     0.18840   0.33200   0.89400   0.12067  Uani   1.00
C950   C     0.23030   0.32190   0.88310   0.11400  Uani   1.00
H951   H     0.23350   0.30220   0.86740   0.13700  Uiso   1.00
C952   C     0.21550   0.39750   0.95830   0.07233  Uani   1.00
C953   C     0.11120   0.32820   0.88380   0.16933  Uani   1.00
H954   H     0.10060   0.35340   0.89250   0.20300  Uiso   1.00
C955   C     0.39990   0.26270   0.88190   0.07367  Uani   1.00
C956   C     0.09030   0.29600   0.86610   0.17233  Uani   1.00
C957   C     0.52280   0.34310   0.82100   0.10567  Uani   1.00
H958   H     0.51960   0.36230   0.83690   0.12700  Uiso   1.00
C959   C     0.48890   0.32290   0.80910   0.07033  Uani   1.00
C960   C     0.49160   0.30220   0.78220   0.09900  Uani   1.00
H961   H     0.46760   0.29060   0.77260   0.11900  Uiso   1.00
C962   C     0.44820   0.32740   0.82410   0.07200  Uani   1.00
Cu963  Cu    0.89505   0.85505   0.37280   0.05193  Uani   1.00
Cu964  Cu    0.85868   0.80609   0.33184   0.05167  Uani   1.00
O965   O     0.87340   0.90126   0.34842   0.06700  Uani   1.00
O966   O     0.84820   0.86072   0.31220   0.06233  Uani   1.00
O967   O     0.83936   0.85186   0.39332   0.06167  Uani   1.00
O968   O     0.80753   0.81290   0.35658   0.07067  Uani   1.00
O969   O     0.91068   0.80332   0.39019   0.06600  Uani   1.00
O970   O     0.87510   0.75991   0.35803   0.07567  Uani   1.00
O971   O     0.94410   0.85044   0.34765   0.05867  Uani   1.00
O972   O     0.91524   0.80580   0.31253   0.07067  Uani   1.00
O973   O     0.75202   0.91640   0.46967   0.06967  Uani   1.00
O974   O     0.67900   0.90750   0.46910   0.07033  Uani   1.00
O975   O     0.73770   0.00335   0.46973   0.06833  Uani   1.00
O976   O     0.66577   0.99468   0.52982   0.06300  Uani   1.00
N977   N     0.77440   0.96460   0.24100   0.14367  Uani   1.00
N978   N     0.75340   0.92380   0.23690   0.20067  Uani   1.00
N979   N     0.74220   0.93400   0.20770   0.21000  Uani   1.00
N980   N     0.54850   0.13140   0.41140   0.21867  Uani   1.00
N981   N     0.58310   0.11510   0.42380   0.19833  Uani   1.00
N982   N     0.61210   0.11240   0.40150   0.13800  Uani   1.00
N983   N     0.65140   0.81060   0.38400   0.15167  Uani   1.00
N984   N     0.65630   0.77910   0.36320   0.17267  Uani   1.00
N985   N     0.61370   0.77180   0.35570   0.15667  Uani   1.00
C986   C     0.85480   0.89700   0.32570   0.05500  Uani   1.00
C987   C     0.83420   0.93610   0.30840   0.08767  Uani   1.00
C988   C     0.81600   0.93110   0.28300   0.06867  Uani   1.00
H989   H     0.81420   0.90400   0.27400   0.08200  Uiso   1.00
C990   C     0.79940   0.96580   0.26960   0.11133  Uani   1.00
C991   C     0.76260   0.99210   0.22370   0.10267  Uani   1.00
H992   H     0.76680   0.02180   0.22510   0.12300  Uiso   1.00
C993   C     0.74040   0.96850   0.20010   0.13200  Uani   1.00
C994   C     0.72370   0.98570   0.17280   0.15200  Uani   1.00
C995   C     0.71800   0.03040   0.16780   0.16300  Uani   1.00
H996   H     0.72520   0.04980   0.18300   0.19500  Uiso   1.00
C997   C     0.70370   0.04410   0.14400   0.18867  Uani   1.00
C998   C     0.48730   0.17070   0.37240   0.17667  Uani   1.00
H999   H     0.47600   0.15340   0.38760   0.21000  Uiso   1.00
C1000  C     0.52750   0.16650   0.36590   0.16000  Uani   1.00
C1001  C     0.69720   0.95690   0.15650   0.12667  Uani   1.00
H1002  H     0.69930   0.92740   0.16020   0.15200  Uiso   1.00
C1003  C     0.55350   0.14430   0.38450   0.15367  Uani   1.00
C1004  C     0.60260   0.13680   0.37950   0.13167  Uani   1.00
H1005  H     0.62030   0.14750   0.36430   0.15800  Uiso   1.00
C1006  C     0.64930   0.09300   0.41000   0.10433  Uani   1.00
C1007  C     0.68810   0.10730   0.39190   0.08967  Uani   1.00
H1008  H     0.68560   0.12820   0.37700   0.10800  Uiso   1.00
C1009  C     0.72860   0.08770   0.39850   0.06367  Uani   1.00
C1010  C     0.72930   0.06160   0.42100   0.07500  Uani   1.00
H1011  H     0.75660   0.05540   0.42850   0.09000  Uiso   1.00
C1012  C     0.69530   0.04120   0.43570   0.07833  Uani   1.00
C1013  C     0.65580   0.06500   0.43130   0.09500  Uani   1.00
H1014  H     0.63330   0.06000   0.44470   0.11400  Uiso   1.00
C1015  C     0.69990   0.01020   0.45930   0.06333  Uani   1.00
C1016  C     0.80760   0.83890   0.38040   0.07867  Uani   1.00
C1017  C     0.76510   0.84040   0.39500   0.06600  Uani   1.00
C1018  C     0.76160   0.86410   0.41980   0.05767  Uani   1.00
H1019  H     0.78630   0.87550   0.42870   0.06900  Uiso   1.00
C1020  C     0.72050   0.87230   0.43300   0.06733  Uani   1.00
C1021  C     0.68740   0.85290   0.42100   0.08667  Uani   1.00
H1022  H     0.66140   0.85340   0.43160   0.10400  Uiso   1.00
C1023  C     0.68840   0.83200   0.39400   0.12067  Uani   1.00
C1024  C     0.73030   0.82190   0.38310   0.11400  Uani   1.00
H1025  H     0.73350   0.80220   0.36740   0.13700  Uiso   1.00
C1026  C     0.71550   0.89750   0.45830   0.07233  Uani   1.00
C1027  C     0.61120   0.82820   0.38380   0.16933  Uani   1.00
H1028  H     0.60060   0.85340   0.39250   0.20300  Uiso   1.00
C1029  C     0.89990   0.76270   0.38190   0.07367  Uani   1.00
C1030  C     0.59030   0.79600   0.36610   0.17233  Uani   1.00
C1031  C     0.02280   0.84310   0.32100   0.10567  Uani   1.00
H1032  H     0.01960   0.86230   0.33690   0.12700  Uiso   1.00
C1033  C     0.98890   0.82290   0.30910   0.07033  Uani   1.00
C1034  C     0.99160   0.80220   0.28220   0.09900  Uani   1.00
H1035  H     0.96760   0.79060   0.27260   0.11900  Uiso   1.00
C1036  C     0.94820   0.82740   0.32410   0.07200  Uani   1.00
Cu1037 Cu    0.60495   0.64495   0.87280   0.05193  Uani   1.00
Cu1038 Cu    0.64132   0.69391   0.83184   0.05167  Uani   1.00
O1039  O     0.62660   0.59874   0.84842   0.06700  Uani   1.00
O1040  O     0.65180   0.63928   0.81220   0.06233  Uani   1.00
O1041  O     0.66064   0.64814   0.89332   0.06167  Uani   1.00
O1042  O     0.69247   0.68710   0.85658   0.07067  Uani   1.00
O1043  O     0.58932   0.69668   0.89019   0.06600  Uani   1.00
O1044  O     0.62490   0.74009   0.85803   0.07567  Uani   1.00
O1045  O     0.55590   0.64956   0.84765   0.05867  Uani   1.00
O1046  O     0.58476   0.69420   0.81253   0.07067  Uani   1.00
O1047  O     0.74798   0.58360   0.96967   0.06967  Uani   1.00
O1048  O     0.82100   0.59250   0.96910   0.07033  Uani   1.00
O1049  O     0.76230   0.49665   0.96973   0.06833  Uani   1.00
O1050  O     0.83423   0.50532   0.02982   0.06300  Uani   1.00
N1051  N     0.72560   0.53540   0.74100   0.14367  Uani   1.00
N1052  N     0.74660   0.57620   0.73690   0.20067  Uani   1.00
N1053  N     0.75780   0.56600   0.70770   0.21000  Uani   1.00
N1054  N     0.95150   0.36860   0.91140   0.21867  Uani   1.00
N1055  N     0.91690   0.38490   0.92380   0.19833  Uani   1.00
N1056  N     0.88790   0.38760   0.90150   0.13800  Uani   1.00
N1057  N     0.84860   0.68940   0.88400   0.15167  Uani   1.00
N1058  N     0.84370   0.72090   0.86320   0.17267  Uani   1.00
N1059  N     0.88630   0.72820   0.85570   0.15667  Uani   1.00
C1060  C     0.64520   0.60300   0.82570   0.05500  Uani   1.00
C1061  C     0.66580   0.56390   0.80840   0.08767  Uani   1.00
C1062  C     0.68400   0.56890   0.78300   0.06867  Uani   1.00
H1063  H     0.68580   0.59600   0.77400   0.08200  Uiso   1.00
C1064  C     0.70060   0.53420   0.76960   0.11133  Uani   1.00
C1065  C     0.73740   0.50790   0.72370   0.10267  Uani   1.00
H1066  H     0.73320   0.47820   0.72510   0.12300  Uiso   1.00
C1067  C     0.75960   0.53150   0.70010   0.13200  Uani   1.00
C1068  C     0.77630   0.51430   0.67280   0.15200  Uani   1.00
C1069  C     0.78200   0.46960   0.66780   0.16300  Uani   1.00
H1070  H     0.77480   0.45020   0.68300   0.19500  Uiso   1.00
C1071  C     0.79630   0.45590   0.64400   0.18867  Uani   1.00
C1072  C     0.01270   0.32930   0.87240   0.17667  Uani   1.00
H1073  H     0.02400   0.34660   0.88760   0.21000  Uiso   1.00
C1074  C     0.97250   0.33350   0.86590   0.16000  Uani   1.00
C1075  C     0.80280   0.54310   0.65650   0.12667  Uani   1.00
H1076  H     0.80070   0.57260   0.66020   0.15200  Uiso   1.00
C1077  C     0.94650   0.35570   0.88450   0.15367  Uani   1.00
C1078  C     0.89740   0.36320   0.87950   0.13167  Uani   1.00
H1079  H     0.87970   0.35250   0.86430   0.15800  Uiso   1.00
C1080  C     0.85070   0.40700   0.91000   0.10433  Uani   1.00
C1081  C     0.81190   0.39270   0.89190   0.08967  Uani   1.00
H1082  H     0.81440   0.37180   0.87700   0.10800  Uiso   1.00
C1083  C     0.77140   0.41230   0.89850   0.06367  Uani   1.00
C1084  C     0.77070   0.43840   0.92100   0.07500  Uani   1.00
H1085  H     0.74340   0.44460   0.92850   0.09000  Uiso   1.00
C1086  C     0.80470   0.45880   0.93570   0.07833  Uani   1.00
C1087  C     0.84420   0.43500   0.93130   0.09500  Uani   1.00
H1088  H     0.86670   0.44000   0.94470   0.11400  Uiso   1.00
C1089  C     0.80010   0.48980   0.95930   0.06333  Uani   1.00
C1090  C     0.69240   0.66110   0.88040   0.07867  Uani   1.00
C1091  C     0.73490   0.65960   0.89500   0.06600  Uani   1.00
C1092  C     0.73840   0.63590   0.91980   0.05767  Uani   1.00
H1093  H     0.71370   0.62450   0.92870   0.06900  Uiso   1.00
C1094  C     0.77950   0.62770   0.93300   0.06733  Uani   1.00
C1095  C     0.81260   0.64710   0.92100   0.08667  Uani   1.00
H1096  H     0.83860   0.64660   0.93160   0.10400  Uiso   1.00
C1097  C     0.81160   0.66800   0.89400   0.12067  Uani   1.00
C1098  C     0.76970   0.67810   0.88310   0.11400  Uani   1.00
H1099  H     0.76650   0.69780   0.86740   0.13700  Uiso   1.00
C1100  C     0.78450   0.60250   0.95830   0.07233  Uani   1.00
C1101  C     0.88880   0.67180   0.88380   0.16933  Uani   1.00
H1102  H     0.89940   0.64660   0.89250   0.20300  Uiso   1.00
C1103  C     0.60010   0.73730   0.88190   0.07367  Uani   1.00
C1104  C     0.90970   0.70400   0.86610   0.17233  Uani   1.00
C1105  C     0.47720   0.65690   0.82100   0.10567  Uani   1.00
H1106  H     0.48040   0.63770   0.83690   0.12700  Uiso   1.00
C1107  C     0.51110   0.67710   0.80910   0.07033  Uani   1.00
C1108  C     0.50840   0.69780   0.78220   0.09900  Uani   1.00
H1109  H     0.53240   0.70940   0.77260   0.11900  Uiso   1.00
C1110  C     0.55180   0.67260   0.82410   0.07200  Uani   1.00
Cu1111 Cu    0.10495   0.14495   0.37280   0.05193  Uani   1.00
Cu1112 Cu    0.14132   0.19391   0.33184   0.05167  Uani   1.00
O1113  O     0.12660   0.09874   0.34842   0.06700  Uani   1.00
O1114  O     0.15180   0.13928   0.31220   0.06233  Uani   1.00
O1115  O     0.16064   0.14814   0.39332   0.06167  Uani   1.00
O1116  O     0.19247   0.18710   0.35658   0.07067  Uani   1.00
O1117  O     0.08932   0.19668   0.39019   0.06600  Uani   1.00
O1118  O     0.12490   0.24009   0.35803   0.07567  Uani   1.00
O1119  O     0.05590   0.14956   0.34765   0.05867  Uani   1.00
O1120  O     0.08476   0.19420   0.31253   0.07067  Uani   1.00
O1121  O     0.24798   0.08360   0.46967   0.06967  Uani   1.00
O1122  O     0.32100   0.09250   0.46910   0.07033  Uani   1.00
O1123  O     0.26230   0.99665   0.46973   0.06833  Uani   1.00
O1124  O     0.33423   0.00532   0.52982   0.06300  Uani   1.00
N1125  N     0.22560   0.03540   0.24100   0.14367  Uani   1.00
N1126  N     0.24660   0.07620   0.23690   0.20067  Uani   1.00
N1127  N     0.25780   0.06600   0.20770   0.21000  Uani   1.00
N1128  N     0.45150   0.86860   0.41140   0.21867  Uani   1.00
N1129  N     0.41690   0.88490   0.42380   0.19833  Uani   1.00
N1130  N     0.38790   0.88760   0.40150   0.13800  Uani   1.00
N1131  N     0.34860   0.18940   0.38400   0.15167  Uani   1.00
N1132  N     0.34370   0.22090   0.36320   0.17267  Uani   1.00
N1133  N     0.38630   0.22820   0.35570   0.15667  Uani   1.00
C1134  C     0.14520   0.10300   0.32570   0.05500  Uani   1.00
C1135  C     0.16580   0.06390   0.30840   0.08767  Uani   1.00
C1136  C     0.18400   0.06890   0.28300   0.06867  Uani   1.00
H1137  H     0.18580   0.09600   0.27400   0.08200  Uiso   1.00
C1138  C     0.20060   0.03420   0.26960   0.11133  Uani   1.00
C1139  C     0.23740   0.00790   0.22370   0.10267  Uani   1.00
H1140  H     0.23320   0.97820   0.22510   0.12300  Uiso   1.00
C1141  C     0.25960   0.03150   0.20010   0.13200  Uani   1.00
C1142  C     0.27630   0.01430   0.17280   0.15200  Uani   1.00
C1143  C     0.28200   0.96960   0.16780   0.16300  Uani   1.00
H1144  H     0.27480   0.95020   0.18300   0.19500  Uiso   1.00
C1145  C     0.29630   0.95590   0.14400   0.18867  Uani   1.00
C1146  C     0.51270   0.82930   0.37240   0.17667  Uani   1.00
H1147  H     0.52400   0.84660   0.38760   0.21000  Uiso   1.00
C1148  C     0.47250   0.83350   0.36590   0.16000  Uani   1.00
C1149  C     0.30280   0.04310   0.15650   0.12667  Uani   1.00
H1150  H     0.30070   0.07260   0.16020   0.15200  Uiso   1.00
C1151  C     0.44650   0.85570   0.38450   0.15367  Uani   1.00
C1152  C     0.39740   0.86320   0.37950   0.13167  Uani   1.00
H1153  H     0.37970   0.85250   0.36430   0.15800  Uiso   1.00
C1154  C     0.35070   0.90700   0.41000   0.10433  Uani   1.00
C1155  C     0.31190   0.89270   0.39190   0.08967  Uani   1.00
H1156  H     0.31440   0.87180   0.37700   0.10800  Uiso   1.00
C1157  C     0.27140   0.91230   0.39850   0.06367  Uani   1.00
C1158  C     0.27070   0.93840   0.42100   0.07500  Uani   1.00
H1159  H     0.24340   0.94460   0.42850   0.09000  Uiso   1.00
C1160  C     0.30470   0.95880   0.43570   0.07833  Uani   1.00
C1161  C     0.34420   0.93500   0.43130   0.09500  Uani   1.00
H1162  H     0.36670   0.94000   0.44470   0.11400  Uiso   1.00
C1163  C     0.30010   0.98980   0.45930   0.06333  Uani   1.00
C1164  C     0.19240   0.16110   0.38040   0.07867  Uani   1.00
C1165  C     0.23490   0.15960   0.39500   0.06600  Uani   1.00
C1166  C     0.23840   0.13590   0.41980   0.05767  Uani   1.00
H1167  H     0.21370   0.12450   0.42870   0.06900  Uiso   1.00
C1168  C     0.27950   0.12770   0.43300   0.06733  Uani   1.00
C1169  C     0.31260   0.14710   0.42100   0.08667  Uani   1.00
H1170  H     0.33860   0.14660   0.43160   0.10400  Uiso   1.00
C1171  C     0.31160   0.16800   0.39400   0.12067  Uani   1.00
C1172  C     0.26970   0.17810   0.38310   0.11400  Uani   1.00
H1173  H     0.26650   0.19780   0.36740   0.13700  Uiso   1.00
C1174  C     0.28450   0.10250   0.45830   0.07233  Uani   1.00
C1175  C     0.38880   0.17180   0.38380   0.16933  Uani   1.00
H1176  H     0.39940   0.14660   0.39250   0.20300  Uiso   1.00
C1177  C     0.10010   0.23730   0.38190   0.07367  Uani   1.00
C1178  C     0.40970   0.20400   0.36610   0.17233  Uani   1.00
C1179  C     0.97720   0.15690   0.32100   0.10567  Uani   1.00
H1180  H     0.98040   0.13770   0.33690   0.12700  Uiso   1.00
C1181  C     0.01110   0.17710   0.30910   0.07033  Uani   1.00
C1182  C     0.00840   0.19780   0.28220   0.09900  Uani   1.00
H1183  H     0.03240   0.20940   0.27260   0.11900  Uiso   1.00
C1184  C     0.05180   0.17260   0.32410   0.07200  Uani   1.00
Cu1185 Cu    0.53852   0.25052   0.00000   0.04863  Uani   1.00
Cu1186 Cu    0.55021   0.16650   0.00000   0.04850  Uani   1.00
Cu1187 Cu    0.03852   0.75052   0.50000   0.04863  Uani   1.00
Cu1188 Cu    0.05021   0.66650   0.50000   0.04850  Uani   1.00
Cu1189 Cu    0.46148   0.74948   0.00000   0.04863  Uani   1.00
Cu1190 Cu    0.44979   0.83350   0.00000   0.04850  Uani   1.00
Cu1191 Cu    0.96148   0.24948   0.50000   0.04863  Uani   1.00
Cu1192 Cu    0.94979   0.33350   0.50000   0.04850  Uani   1.00
Cu1193 Cu    0.74948   0.53852   0.00000   0.04863  Uani   1.00
Cu1194 Cu    0.83350   0.55021   0.00000   0.04850  Uani   1.00
Cu1195 Cu    0.24948   0.03852   0.50000   0.04863  Uani   1.00
Cu1196 Cu    0.33350   0.05021   0.50000   0.04850  Uani   1.00
Cu1197 Cu    0.25052   0.46148   0.00000   0.04863  Uani   1.00
Cu1198 Cu    0.16650   0.44979   0.00000   0.04850  Uani   1.00
Cu1199 Cu    0.75052   0.96148   0.50000   0.04863  Uani   1.00
Cu1200 Cu    0.66650   0.94979   0.50000   0.04850  Uani   1.00
loop_
_atom_site_aniso_label
_atom_site_aniso_U_11
_atom_site_aniso_U_22
_atom_site_aniso_U_33
_atom_site_aniso_U_12
_atom_site_aniso_U_13
_atom_site_aniso_U_23
Cu1       0.05140   0.04640   0.05800  -0.00230  -0.01200   0.00780
Cu2       0.05210   0.04300   0.05990  -0.00430  -0.01060   0.01020
O3        0.03900   0.07600   0.08600   0.00500  -0.01300   0.02100
O4        0.04800   0.08400   0.05500  -0.00100  -0.01000   0.01600
O5        0.06000   0.04600   0.07900  -0.00100  -0.02400  -0.00200
O6        0.09300   0.05300   0.06600   0.00500  -0.02300  -0.00100
O7        0.05700   0.06600   0.07500   0.00000  -0.00600   0.02600
O8        0.05000   0.10300   0.07400   0.00800  -0.00900   0.00500
O9        0.04800   0.04400   0.08400   0.01200  -0.02600  -0.00800
O10       0.07400   0.05400   0.08400   0.01200  -0.02600  -0.00400
O11       0.07900   0.05600   0.07400  -0.00100  -0.01300   0.01800
O12       0.07800   0.06300   0.07000   0.01800  -0.01900  -0.01700
O13       0.07600   0.06200   0.06700   0.00300   0.02800  -0.01800
O14       0.06400   0.05300   0.07200   0.00500  -0.00200  -0.00700
N15       0.06600   0.25200   0.11300  -0.00800  -0.01800   0.12800
N16       0.04000   0.36800   0.19400  -0.01300  -0.00600   0.19800
N17       0.05900   0.36700   0.20400   0.00200   0.00200   0.22400
N18       0.36700   0.11100   0.17800  -0.10000   0.17000  -0.03700
N19       0.32500   0.09400   0.17600  -0.06900   0.16900  -0.04100
N20       0.20500   0.05100   0.15800  -0.02500   0.11200  -0.00700
N21       0.21300   0.04600   0.19600  -0.02200  -0.16500   0.02700
N22       0.21000   0.09000   0.21800  -0.02100  -0.16000   0.04100
N23       0.26300   0.05400   0.15300   0.00200  -0.16400   0.00200
C24       0.06100   0.03900   0.06500   0.00000  -0.00200   0.00200
C25       0.04400   0.13600   0.08300   0.00100   0.00500   0.05500
C26       0.03800   0.09200   0.07600   0.00200  -0.00700   0.03100
C28       0.09200   0.15700   0.08500  -0.00600  -0.00300   0.07300
C29       0.04800   0.16700   0.09300  -0.05600  -0.01100   0.07900
C31       0.03500   0.19900   0.16200   0.00100   0.00400   0.12500
C32       0.05600   0.24000   0.16000  -0.02500  -0.01800   0.15400
C33       0.05200   0.25800   0.17900  -0.05700  -0.04300   0.17300
C35       0.06500   0.33000   0.17100  -0.04500  -0.02300   0.20000
C36       0.35000   0.06900   0.11100  -0.06900   0.02000   0.03300
C38       0.31800   0.04200   0.12000   0.01300   0.12500   0.00900
C39       0.06100   0.13700   0.18200  -0.01600   0.03200   0.12400
C41       0.21000   0.06500   0.18600  -0.04000   0.16200  -0.05200
C42       0.19300   0.06200   0.14000  -0.01000   0.11300  -0.00500
C44       0.13200   0.05000   0.13100   0.00700   0.06700   0.01100
C45       0.08300   0.06600   0.12000  -0.00900   0.04900  -0.03300
C47       0.07800   0.03700   0.07600   0.01000   0.02400   0.00900
C48       0.07500   0.05600   0.09400   0.00200   0.00900   0.00100
C50       0.11900   0.04800   0.06800  -0.00800   0.03500  -0.00600
C51       0.14600   0.04200   0.09700   0.01900   0.06200  -0.00100
C53       0.06300   0.07100   0.05600  -0.01000  -0.00300  -0.01100
C54       0.10100   0.05600   0.07900  -0.02000  -0.02300   0.01100
C55       0.08800   0.04400   0.06600  -0.00800  -0.02200   0.01000
C56       0.04300   0.05200   0.07800   0.00200  -0.01200   0.01300
C58       0.09300   0.03700   0.07200  -0.00200  -0.03500   0.01900
C59       0.10300   0.04600   0.11100   0.00000  -0.06500  -0.00700
C61       0.17200   0.03900   0.15100   0.00500  -0.11500  -0.00400
C62       0.19100   0.04100   0.11000  -0.02000  -0.10100   0.01000
C64       0.06300   0.08200   0.07200   0.01300  -0.01500  -0.00600
C65       0.31100   0.02000   0.17700   0.02300  -0.20200  -0.01700
C67       0.07600   0.08200   0.06300   0.01200   0.00000  -0.00200
C68       0.29800   0.05100   0.16800   0.01200  -0.19600  -0.00500
C69       0.13300   0.06900   0.11500   0.02600  -0.05000   0.00100
C71       0.07800   0.05600   0.07700   0.01700  -0.02100  -0.00200
C72       0.10200   0.09100   0.10400  -0.03300  -0.04600  -0.00500
C74       0.07500   0.06600   0.07500  -0.00500  -0.01100  -0.00400
Cu75      0.05140   0.04640   0.05800  -0.00230  -0.01200   0.00780
Cu76      0.05210   0.04300   0.05990  -0.00430  -0.01060   0.01020
O77       0.03900   0.07600   0.08600   0.00500  -0.01300   0.02100
O78       0.04800   0.08400   0.05500  -0.00100  -0.01000   0.01600
O79       0.06000   0.04600   0.07900  -0.00100  -0.02400  -0.00200
O80       0.09300   0.05300   0.06600   0.00500  -0.02300  -0.00100
O81       0.05700   0.06600   0.07500   0.00000  -0.00600   0.02600
O82       0.05000   0.10300   0.07400   0.00800  -0.00900   0.00500
O83       0.04800   0.04400   0.08400   0.01200  -0.02600  -0.00800
O84       0.07400   0.05400   0.08400   0.01200  -0.02600  -0.00400
O85       0.07900   0.05600   0.07400  -0.00100  -0.01300   0.01800
O86       0.07800   0.06300   0.07000   0.01800  -0.01900  -0.01700
O87       0.07600   0.06200   0.06700   0.00300   0.02800  -0.01800
O88       0.06400   0.05300   0.07200   0.00500  -0.00200  -0.00700
N89       0.06600   0.25200   0.11300  -0.00800  -0.01800   0.12800
N90       0.04000   0.36800   0.19400  -0.01300  -0.00600   0.19800
N91       0.05900   0.36700   0.20400   0.00200   0.00200   0.22400
N92       0.36700   0.11100   0.17800  -0.10000   0.17000  -0.03700
N93       0.32500   0.09400   0.17600  -0.06900   0.16900  -0.04100
N94       0.20500   0.05100   0.15800  -0.02500   0.11200  -0.00700
N95       0.21300   0.04600   0.19600  -0.02200  -0.16500   0.02700
N96       0.21000   0.09000   0.21800  -0.02100  -0.16000   0.04100
N97       0.26300   0.05400   0.15300   0.00200  -0.16400   0.00200
C98       0.06100   0.03900   0.06500   0.00000  -0.00200   0.00200
C99       0.04400   0.13600   0.08300   0.00100   0.00500   0.05500
C100      0.03800   0.09200   0.07600   0.00200  -0.00700   0.03100
C102      0.09200   0.15700   0.08500  -0.00600  -0.00300   0.07300
C103      0.04800   0.16700   0.09300  -0.05600  -0.01100   0.07900
C105      0.03500   0.19900   0.16200   0.00100   0.00400   0.12500
C106      0.05600   0.24000   0.16000  -0.02500  -0.01800   0.15400
C107      0.05200   0.25800   0.17900  -0.05700  -0.04300   0.17300
C109      0.06500   0.33000   0.17100  -0.04500  -0.02300   0.20000
C110      0.35000   0.06900   0.11100  -0.06900   0.02000   0.03300
C112      0.31800   0.04200   0.12000   0.01300   0.12500   0.00900
C113      0.06100   0.13700   0.18200  -0.01600   0.03200   0.12400
C115      0.21000   0.06500   0.18600  -0.04000   0.16200  -0.05200
C116      0.19300   0.06200   0.14000  -0.01000   0.11300  -0.00500
C118      0.13200   0.05000   0.13100   0.00700   0.06700   0.01100
C119      0.08300   0.06600   0.12000  -0.00900   0.04900  -0.03300
C121      0.07800   0.03700   0.07600   0.01000   0.02400   0.00900
C122      0.07500   0.05600   0.09400   0.00200   0.00900   0.00100
C124      0.11900   0.04800   0.06800  -0.00800   0.03500  -0.00600
C125      0.14600   0.04200   0.09700   0.01900   0.06200  -0.00100
C127      0.06300   0.07100   0.05600  -0.01000  -0.00300  -0.01100
C128      0.10100   0.05600   0.07900  -0.02000  -0.02300   0.01100
C129      0.08800   0.04400   0.06600  -0.00800  -0.02200   0.01000
C130      0.04300   0.05200   0.07800   0.00200  -0.01200   0.01300
C132      0.09300   0.03700   0.07200  -0.00200  -0.03500   0.01900
C133      0.10300   0.04600   0.11100   0.00000  -0.06500  -0.00700
C135      0.17200   0.03900   0.15100   0.00500  -0.11500  -0.00400
C136      0.19100   0.04100   0.11000  -0.02000  -0.10100   0.01000
C138      0.06300   0.08200   0.07200   0.01300  -0.01500  -0.00600
C139      0.31100   0.02000   0.17700   0.02300  -0.20200  -0.01700
C141      0.07600   0.08200   0.06300   0.01200   0.00000  -0.00200
C142      0.29800   0.05100   0.16800   0.01200  -0.19600  -0.00500
C143      0.13300   0.06900   0.11500   0.02600  -0.05000   0.00100
C145      0.07800   0.05600   0.07700   0.01700  -0.02100  -0.00200
C146      0.10200   0.09100   0.10400  -0.03300  -0.04600  -0.00500
C148      0.07500   0.06600   0.07500  -0.00500  -0.01100  -0.00400
Cu149     0.05140   0.04640   0.05800  -0.00230   0.01200  -0.00780
Cu150     0.05210   0.04300   0.05990  -0.00430   0.01060  -0.01020
O151      0.03900   0.07600   0.08600   0.00500   0.01300  -0.02100
O152      0.04800   0.08400   0.05500  -0.00100   0.01000  -0.01600
O153      0.06000   0.04600   0.07900  -0.00100   0.02400   0.00200
O154      0.09300   0.05300   0.06600   0.00500   0.02300   0.00100
O155      0.05700   0.06600   0.07500   0.00000   0.00600  -0.02600
O156      0.05000   0.10300   0.07400   0.00800   0.00900  -0.00500
O157      0.04800   0.04400   0.08400   0.01200   0.02600   0.00800
O158      0.07400   0.05400   0.08400   0.01200   0.02600   0.00400
O159      0.07900   0.05600   0.07400  -0.00100   0.01300  -0.01800
O160      0.07800   0.06300   0.07000   0.01800   0.01900   0.01700
O161      0.07600   0.06200   0.06700   0.00300  -0.02800   0.01800
O162      0.06400   0.05300   0.07200   0.00500   0.00200   0.00700
N163      0.06600   0.25200   0.11300  -0.00800   0.01800  -0.12800
N164      0.04000   0.36800   0.19400  -0.01300   0.00600  -0.19800
N165      0.05900   0.36700   0.20400   0.00200  -0.00200  -0.22400
N166      0.36700   0.11100   0.17800  -0.10000  -0.17000   0.03700
N167      0.32500   0.09400   0.17600  -0.06900  -0.16900   0.04100
N168      0.20500   0.05100   0.15800  -0.02500  -0.11200   0.00700
N169      0.21300   0.04600   0.19600  -0.02200   0.16500  -0.02700
N170      0.21000   0.09000   0.21800  -0.02100   0.16000  -0.04100
N171      0.26300   0.05400   0.15300   0.00200   0.16400  -0.00200
C172      0.06100   0.03900   0.06500   0.00000   0.00200  -0.00200
C173      0.04400   0.13600   0.08300   0.00100  -0.00500  -0.05500
C174      0.03800   0.09200   0.07600   0.00200   0.00700  -0.03100
C176      0.09200   0.15700   0.08500  -0.00600   0.00300  -0.07300
C177      0.04800   0.16700   0.09300  -0.05600   0.01100  -0.07900
C179      0.03500   0.19900   0.16200   0.00100  -0.00400  -0.12500
C180      0.05600   0.24000   0.16000  -0.02500   0.01800  -0.15400
C181      0.05200   0.25800   0.17900  -0.05700   0.04300  -0.17300
C183      0.06500   0.33000   0.17100  -0.04500   0.02300  -0.20000
C184      0.35000   0.06900   0.11100  -0.06900  -0.02000  -0.03300
C186      0.31800   0.04200   0.12000   0.01300  -0.12500  -0.00900
C187      0.06100   0.13700   0.18200  -0.01600  -0.03200  -0.12400
C189      0.21000   0.06500   0.18600  -0.04000  -0.16200   0.05200
C190      0.19300   0.06200   0.14000  -0.01000  -0.11300   0.00500
C192      0.13200   0.05000   0.13100   0.00700  -0.06700  -0.01100
C193      0.08300   0.06600   0.12000  -0.00900  -0.04900   0.03300
C195      0.07800   0.03700   0.07600   0.01000  -0.02400  -0.00900
C196      0.07500   0.05600   0.09400   0.00200  -0.00900  -0.00100
C198      0.11900   0.04800   0.06800  -0.00800  -0.03500   0.00600
C199      0.14600   0.04200   0.09700   0.01900  -0.06200   0.00100
C201      0.06300   0.07100   0.05600  -0.01000   0.00300   0.01100
C202      0.10100   0.05600   0.07900  -0.02000   0.02300  -0.01100
C203      0.08800   0.04400   0.06600  -0.00800   0.02200  -0.01000
C204      0.04300   0.05200   0.07800   0.00200   0.01200  -0.01300
C206      0.09300   0.03700   0.07200  -0.00200   0.03500  -0.01900
C207      0.10300   0.04600   0.11100   0.00000   0.06500   0.00700
C209      0.17200   0.03900   0.15100   0.00500   0.11500   0.00400
C210      0.19100   0.04100   0.11000  -0.02000   0.10100  -0.01000
C212      0.06300   0.08200   0.07200   0.01300   0.01500   0.00600
C213      0.31100   0.02000   0.17700   0.02300   0.20200   0.01700
C215      0.07600   0.08200   0.06300   0.01200   0.00000   0.00200
C216      0.29800   0.05100   0.16800   0.01200   0.19600   0.00500
C217      0.13300   0.06900   0.11500   0.02600   0.05000  -0.00100
C219      0.07800   0.05600   0.07700   0.01700   0.02100   0.00200
C220      0.10200   0.09100   0.10400  -0.03300   0.04600   0.00500
C222      0.07500   0.06600   0.07500  -0.00500   0.01100   0.00400
Cu223     0.05140   0.04640   0.05800  -0.00230   0.01200  -0.00780
Cu224     0.05210   0.04300   0.05990  -0.00430   0.01060  -0.01020
O225      0.03900   0.07600   0.08600   0.00500   0.01300  -0.02100
O226      0.04800   0.08400   0.05500  -0.00100   0.01000  -0.01600
O227      0.06000   0.04600   0.07900  -0.00100   0.02400   0.00200
O228      0.09300   0.05300   0.06600   0.00500   0.02300   0.00100
O229      0.05700   0.06600   0.07500   0.00000   0.00600  -0.02600
O230      0.05000   0.10300   0.07400   0.00800   0.00900  -0.00500
O231      0.04800   0.04400   0.08400   0.01200   0.02600   0.00800
O232      0.07400   0.05400   0.08400   0.01200   0.02600   0.00400
O233      0.07900   0.05600   0.07400  -0.00100   0.01300  -0.01800
O234      0.07800   0.06300   0.07000   0.01800   0.01900   0.01700
O235      0.07600   0.06200   0.06700   0.00300  -0.02800   0.01800
O236      0.06400   0.05300   0.07200   0.00500   0.00200   0.00700
N237      0.06600   0.25200   0.11300  -0.00800   0.01800  -0.12800
N238      0.04000   0.36800   0.19400  -0.01300   0.00600  -0.19800
N239      0.05900   0.36700   0.20400   0.00200  -0.00200  -0.22400
N240      0.36700   0.11100   0.17800  -0.10000  -0.17000   0.03700
N241      0.32500   0.09400   0.17600  -0.06900  -0.16900   0.04100
N242      0.20500   0.05100   0.15800  -0.02500  -0.11200   0.00700
N243      0.21300   0.04600   0.19600  -0.02200   0.16500  -0.02700
N244      0.21000   0.09000   0.21800  -0.02100   0.16000  -0.04100
N245      0.26300   0.05400   0.15300   0.00200   0.16400  -0.00200
C246      0.06100   0.03900   0.06500   0.00000   0.00200  -0.00200
C247      0.04400   0.13600   0.08300   0.00100  -0.00500  -0.05500
C248      0.03800   0.09200   0.07600   0.00200   0.00700  -0.03100
C250      0.09200   0.15700   0.08500  -0.00600   0.00300  -0.07300
C251      0.04800   0.16700   0.09300  -0.05600   0.01100  -0.07900
C253      0.03500   0.19900   0.16200   0.00100  -0.00400  -0.12500
C254      0.05600   0.24000   0.16000  -0.02500   0.01800  -0.15400
C255      0.05200   0.25800   0.17900  -0.05700   0.04300  -0.17300
C257      0.06500   0.33000   0.17100  -0.04500   0.02300  -0.20000
C258      0.35000   0.06900   0.11100  -0.06900  -0.02000  -0.03300
C260      0.31800   0.04200   0.12000   0.01300  -0.12500  -0.00900
C261      0.06100   0.13700   0.18200  -0.01600  -0.03200  -0.12400
C263      0.21000   0.06500   0.18600  -0.04000  -0.16200   0.05200
C264      0.19300   0.06200   0.14000  -0.01000  -0.11300   0.00500
C266      0.13200   0.05000   0.13100   0.00700  -0.06700  -0.01100
C267      0.08300   0.06600   0.12000  -0.00900  -0.04900   0.03300
C269      0.07800   0.03700   0.07600   0.01000  -0.02400  -0.00900
C270      0.07500   0.05600   0.09400   0.00200  -0.00900  -0.00100
C272      0.11900   0.04800   0.06800  -0.00800  -0.03500   0.00600
C273      0.14600   0.04200   0.09700   0.01900  -0.06200   0.00100
C275      0.06300   0.07100   0.05600  -0.01000   0.00300   0.01100
C276      0.10100   0.05600   0.07900  -0.02000   0.02300  -0.01100
C277      0.08800   0.04400   0.06600  -0.00800   0.02200  -0.01000
C278      0.04300   0.05200   0.07800   0.00200   0.01200  -0.01300
C280      0.09300   0.03700   0.07200  -0.00200   0.03500  -0.01900
C281      0.10300   0.04600   0.11100   0.00000   0.06500   0.00700
C283      0.17200   0.03900   0.15100   0.00500   0.11500   0.00400
C284      0.19100   0.04100   0.11000  -0.02000   0.10100  -0.01000
C286      0.06300   0.08200   0.07200   0.01300   0.01500   0.00600
C287      0.31100   0.02000   0.17700   0.02300   0.20200   0.01700
C289      0.07600   0.08200   0.06300   0.01200   0.00000   0.00200
C290      0.29800   0.05100   0.16800   0.01200   0.19600   0.00500
C291      0.13300   0.06900   0.11500   0.02600   0.05000  -0.00100
C293      0.07800   0.05600   0.07700   0.01700   0.02100   0.00200
C294      0.10200   0.09100   0.10400  -0.03300   0.04600   0.00500
C296      0.07500   0.06600   0.07500  -0.00500   0.01100   0.00400
Cu297     0.04640   0.05140   0.05800   0.00230  -0.00780  -0.01200
Cu298     0.04300   0.05210   0.05990   0.00430  -0.01020  -0.01060
O299      0.07600   0.03900   0.08600  -0.00500  -0.02100  -0.01300
O300      0.08400   0.04800   0.05500   0.00100  -0.01600  -0.01000
O301      0.04600   0.06000   0.07900   0.00100   0.00200  -0.02400
O302      0.05300   0.09300   0.06600  -0.00500   0.00100  -0.02300
O303      0.06600   0.05700   0.07500   0.00000  -0.02600  -0.00600
O304      0.10300   0.05000   0.07400  -0.00800  -0.00500  -0.00900
O305      0.04400   0.04800   0.08400  -0.01200   0.00800  -0.02600
O306      0.05400   0.07400   0.08400  -0.01200   0.00400  -0.02600
O307      0.05600   0.07900   0.07400   0.00100  -0.01800  -0.01300
O308      0.06300   0.07800   0.07000  -0.01800   0.01700  -0.01900
O309      0.06200   0.07600   0.06700  -0.00300   0.01800   0.02800
O310      0.05300   0.06400   0.07200  -0.00500   0.00700  -0.00200
N311      0.25200   0.06600   0.11300   0.00800  -0.12800  -0.01800
N312      0.36800   0.04000   0.19400   0.01300  -0.19800  -0.00600
N313      0.36700   0.05900   0.20400  -0.00200  -0.22400   0.00200
N314      0.11100   0.36700   0.17800   0.10000   0.03700   0.17000
N315      0.09400   0.32500   0.17600   0.06900   0.04100   0.16900
N316      0.05100   0.20500   0.15800   0.02500   0.00700   0.11200
N317      0.04600   0.21300   0.19600   0.02200  -0.02700  -0.16500
N318      0.09000   0.21000   0.21800   0.02100  -0.04100  -0.16000
N319      0.05400   0.26300   0.15300  -0.00200  -0.00200  -0.16400
C320      0.03900   0.06100   0.06500   0.00000  -0.00200  -0.00200
C321      0.13600   0.04400   0.08300  -0.00100  -0.05500   0.00500
C322      0.09200   0.03800   0.07600  -0.00200  -0.03100  -0.00700
C324      0.15700   0.09200   0.08500   0.00600  -0.07300  -0.00300
C325      0.16700   0.04800   0.09300   0.05600  -0.07900  -0.01100
C327      0.19900   0.03500   0.16200  -0.00100  -0.12500   0.00400
C328      0.24000   0.05600   0.16000   0.02500  -0.15400  -0.01800
C329      0.25800   0.05200   0.17900   0.05700  -0.17300  -0.04300
C331      0.33000   0.06500   0.17100   0.04500  -0.20000  -0.02300
C332      0.06900   0.35000   0.11100   0.06900  -0.03300   0.02000
C334      0.04200   0.31800   0.12000  -0.01300  -0.00900   0.12500
C335      0.13700   0.06100   0.18200   0.01600  -0.12400   0.03200
C337      0.06500   0.21000   0.18600   0.04000   0.05200   0.16200
C338      0.06200   0.19300   0.14000   0.01000   0.00500   0.11300
C340      0.05000   0.13200   0.13100  -0.00700  -0.01100   0.06700
C341      0.06600   0.08300   0.12000   0.00900   0.03300   0.04900
C343      0.03700   0.07800   0.07600  -0.01000  -0.00900   0.02400
C344      0.05600   0.07500   0.09400  -0.00200  -0.00100   0.00900
C346      0.04800   0.11900   0.06800   0.00800   0.00600   0.03500
C347      0.04200   0.14600   0.09700  -0.01900   0.00100   0.06200
C349      0.07100   0.06300   0.05600   0.01000   0.01100  -0.00300
C350      0.05600   0.10100   0.07900   0.02000  -0.01100  -0.02300
C351      0.04400   0.08800   0.06600   0.00800  -0.01000  -0.02200
C352      0.05200   0.04300   0.07800  -0.00200  -0.01300  -0.01200
C354      0.03700   0.09300   0.07200   0.00200  -0.01900  -0.03500
C355      0.04600   0.10300   0.11100   0.00000   0.00700  -0.06500
C357      0.03900   0.17200   0.15100  -0.00500   0.00400  -0.11500
C358      0.04100   0.19100   0.11000   0.02000  -0.01000  -0.10100
C360      0.08200   0.06300   0.07200  -0.01300   0.00600  -0.01500
C361      0.02000   0.31100   0.17700  -0.02300   0.01700  -0.20200
C363      0.08200   0.07600   0.06300  -0.01200   0.00200   0.00000
C364      0.05100   0.29800   0.16800  -0.01200   0.00500  -0.19600
C365      0.06900   0.13300   0.11500  -0.02600  -0.00100  -0.05000
C367      0.05600   0.07800   0.07700  -0.01700   0.00200  -0.02100
C368      0.09100   0.10200   0.10400   0.03300   0.00500  -0.04600
C370      0.06600   0.07500   0.07500   0.00500   0.00400  -0.01100
Cu371     0.04640   0.05140   0.05800   0.00230  -0.00780  -0.01200
Cu372     0.04300   0.05210   0.05990   0.00430  -0.01020  -0.01060
O373      0.07600   0.03900   0.08600  -0.00500  -0.02100  -0.01300
O374      0.08400   0.04800   0.05500   0.00100  -0.01600  -0.01000
O375      0.04600   0.06000   0.07900   0.00100   0.00200  -0.02400
O376      0.05300   0.09300   0.06600  -0.00500   0.00100  -0.02300
O377      0.06600   0.05700   0.07500   0.00000  -0.02600  -0.00600
O378      0.10300   0.05000   0.07400  -0.00800  -0.00500  -0.00900
O379      0.04400   0.04800   0.08400  -0.01200   0.00800  -0.02600
O380      0.05400   0.07400   0.08400  -0.01200   0.00400  -0.02600
O381      0.05600   0.07900   0.07400   0.00100  -0.01800  -0.01300
O382      0.06300   0.07800   0.07000  -0.01800   0.01700  -0.01900
O383      0.06200   0.07600   0.06700  -0.00300   0.01800   0.02800
O384      0.05300   0.06400   0.07200  -0.00500   0.00700  -0.00200
N385      0.25200   0.06600   0.11300   0.00800  -0.12800  -0.01800
N386      0.36800   0.04000   0.19400   0.01300  -0.19800  -0.00600
N387      0.36700   0.05900   0.20400  -0.00200  -0.22400   0.00200
N388      0.11100   0.36700   0.17800   0.10000   0.03700   0.17000
N389      0.09400   0.32500   0.17600   0.06900   0.04100   0.16900
N390      0.05100   0.20500   0.15800   0.02500   0.00700   0.11200
N391      0.04600   0.21300   0.19600   0.02200  -0.02700  -0.16500
N392      0.09000   0.21000   0.21800   0.02100  -0.04100  -0.16000
N393      0.05400   0.26300   0.15300  -0.00200  -0.00200  -0.16400
C394      0.03900   0.06100   0.06500   0.00000  -0.00200  -0.00200
C395      0.13600   0.04400   0.08300  -0.00100  -0.05500   0.00500
C396      0.09200   0.03800   0.07600  -0.00200  -0.03100  -0.00700
C398      0.15700   0.09200   0.08500   0.00600  -0.07300  -0.00300
C399      0.16700   0.04800   0.09300   0.05600  -0.07900  -0.01100
C401      0.19900   0.03500   0.16200  -0.00100  -0.12500   0.00400
C402      0.24000   0.05600   0.16000   0.02500  -0.15400  -0.01800
C403      0.25800   0.05200   0.17900   0.05700  -0.17300  -0.04300
C405      0.33000   0.06500   0.17100   0.04500  -0.20000  -0.02300
C406      0.06900   0.35000   0.11100   0.06900  -0.03300   0.02000
C408      0.04200   0.31800   0.12000  -0.01300  -0.00900   0.12500
C409      0.13700   0.06100   0.18200   0.01600  -0.12400   0.03200
C411      0.06500   0.21000   0.18600   0.04000   0.05200   0.16200
C412      0.06200   0.19300   0.14000   0.01000   0.00500   0.11300
C414      0.05000   0.13200   0.13100  -0.00700  -0.01100   0.06700
C415      0.06600   0.08300   0.12000   0.00900   0.03300   0.04900
C417      0.03700   0.07800   0.07600  -0.01000  -0.00900   0.02400
C418      0.05600   0.07500   0.09400  -0.00200  -0.00100   0.00900
C420      0.04800   0.11900   0.06800   0.00800   0.00600   0.03500
C421      0.04200   0.14600   0.09700  -0.01900   0.00100   0.06200
C423      0.07100   0.06300   0.05600   0.01000   0.01100  -0.00300
C424      0.05600   0.10100   0.07900   0.02000  -0.01100  -0.02300
C425      0.04400   0.08800   0.06600   0.00800  -0.01000  -0.02200
C426      0.05200   0.04300   0.07800  -0.00200  -0.01300  -0.01200
C428      0.03700   0.09300   0.07200   0.00200  -0.01900  -0.03500
C429      0.04600   0.10300   0.11100   0.00000   0.00700  -0.06500
C431      0.03900   0.17200   0.15100  -0.00500   0.00400  -0.11500
C432      0.04100   0.19100   0.11000   0.02000  -0.01000  -0.10100
C434      0.08200   0.06300   0.07200  -0.01300   0.00600  -0.01500
C435      0.02000   0.31100   0.17700  -0.02300   0.01700  -0.20200
C437      0.08200   0.07600   0.06300  -0.01200   0.00200   0.00000
C438      0.05100   0.29800   0.16800  -0.01200   0.00500  -0.19600
C439      0.06900   0.13300   0.11500  -0.02600  -0.00100  -0.05000
C441      0.05600   0.07800   0.07700  -0.01700   0.00200  -0.02100
C442      0.09100   0.10200   0.10400   0.03300   0.00500  -0.04600
C444      0.06600   0.07500   0.07500   0.00500   0.00400  -0.01100
Cu445     0.04640   0.05140   0.05800   0.00230   0.00780   0.01200
Cu446     0.04300   0.05210   0.05990   0.00430   0.01020   0.01060
O447      0.07600   0.03900   0.08600  -0.00500   0.02100   0.01300
O448      0.08400   0.04800   0.05500   0.00100   0.01600   0.01000
O449      0.04600   0.06000   0.07900   0.00100  -0.00200   0.02400
O450      0.05300   0.09300   0.06600  -0.00500  -0.00100   0.02300
O451      0.06600   0.05700   0.07500   0.00000   0.02600   0.00600
O452      0.10300   0.05000   0.07400  -0.00800   0.00500   0.00900
O453      0.04400   0.04800   0.08400  -0.01200  -0.00800   0.02600
O454      0.05400   0.07400   0.08400  -0.01200  -0.00400   0.02600
O455      0.05600   0.07900   0.07400   0.00100   0.01800   0.01300
O456      0.06300   0.07800   0.07000  -0.01800  -0.01700   0.01900
O457      0.06200   0.07600   0.06700  -0.00300  -0.01800  -0.02800
O458      0.05300   0.06400   0.07200  -0.00500  -0.00700   0.00200
N459      0.25200   0.06600   0.11300   0.00800   0.12800   0.01800
N460      0.36800   0.04000   0.19400   0.01300   0.19800   0.00600
N461      0.36700   0.05900   0.20400  -0.00200   0.22400  -0.00200
N462      0.11100   0.36700   0.17800   0.10000  -0.03700  -0.17000
N463      0.09400   0.32500   0.17600   0.06900  -0.04100  -0.16900
N464      0.05100   0.20500   0.15800   0.02500  -0.00700  -0.11200
N465      0.04600   0.21300   0.19600   0.02200   0.02700   0.16500
N466      0.09000   0.21000   0.21800   0.02100   0.04100   0.16000
N467      0.05400   0.26300   0.15300  -0.00200   0.00200   0.16400
C468      0.03900   0.06100   0.06500   0.00000   0.00200   0.00200
C469      0.13600   0.04400   0.08300  -0.00100   0.05500  -0.00500
C470      0.09200   0.03800   0.07600  -0.00200   0.03100   0.00700
C472      0.15700   0.09200   0.08500   0.00600   0.07300   0.00300
C473      0.16700   0.04800   0.09300   0.05600   0.07900   0.01100
C475      0.19900   0.03500   0.16200  -0.00100   0.12500  -0.00400
C476      0.24000   0.05600   0.16000   0.02500   0.15400   0.01800
C477      0.25800   0.05200   0.17900   0.05700   0.17300   0.04300
C479      0.33000   0.06500   0.17100   0.04500   0.20000   0.02300
C480      0.06900   0.35000   0.11100   0.06900   0.03300  -0.02000
C482      0.04200   0.31800   0.12000  -0.01300   0.00900  -0.12500
C483      0.13700   0.06100   0.18200   0.01600   0.12400  -0.03200
C485      0.06500   0.21000   0.18600   0.04000  -0.05200  -0.16200
C486      0.06200   0.19300   0.14000   0.01000  -0.00500  -0.11300
C488      0.05000   0.13200   0.13100  -0.00700   0.01100  -0.06700
C489      0.06600   0.08300   0.12000   0.00900  -0.03300  -0.04900
C491      0.03700   0.07800   0.07600  -0.01000   0.00900  -0.02400
C492      0.05600   0.07500   0.09400  -0.00200   0.00100  -0.00900
C494      0.04800   0.11900   0.06800   0.00800  -0.00600  -0.03500
C495      0.04200   0.14600   0.09700  -0.01900  -0.00100  -0.06200
C497      0.07100   0.06300   0.05600   0.01000  -0.01100   0.00300
C498      0.05600   0.10100   0.07900   0.02000   0.01100   0.02300
C499      0.04400   0.08800   0.06600   0.00800   0.01000   0.02200
C500      0.05200   0.04300   0.07800  -0.00200   0.01300   0.01200
C502      0.03700   0.09300   0.07200   0.00200   0.01900   0.03500
C503      0.04600   0.10300   0.11100   0.00000  -0.00700   0.06500
C505      0.03900   0.17200   0.15100  -0.00500  -0.00400   0.11500
C506      0.04100   0.19100   0.11000   0.02000   0.01000   0.10100
C508      0.08200   0.06300   0.07200  -0.01300  -0.00600   0.01500
C509      0.02000   0.31100   0.17700  -0.02300  -0.01700   0.20200
C511      0.08200   0.07600   0.06300  -0.01200  -0.00200   0.00000
C512      0.05100   0.29800   0.16800  -0.01200  -0.00500   0.19600
C513      0.06900   0.13300   0.11500  -0.02600   0.00100   0.05000
C515      0.05600   0.07800   0.07700  -0.01700  -0.00200   0.02100
C516      0.09100   0.10200   0.10400   0.03300  -0.00500   0.04600
C518      0.06600   0.07500   0.07500   0.00500  -0.00400   0.01100
Cu519     0.04640   0.05140   0.05800   0.00230   0.00780   0.01200
Cu520     0.04300   0.05210   0.05990   0.00430   0.01020   0.01060
O521      0.07600   0.03900   0.08600  -0.00500   0.02100   0.01300
O522      0.08400   0.04800   0.05500   0.00100   0.01600   0.01000
O523      0.04600   0.06000   0.07900   0.00100  -0.00200   0.02400
O524      0.05300   0.09300   0.06600  -0.00500  -0.00100   0.02300
O525      0.06600   0.05700   0.07500   0.00000   0.02600   0.00600
O526      0.10300   0.05000   0.07400  -0.00800   0.00500   0.00900
O527      0.04400   0.04800   0.08400  -0.01200  -0.00800   0.02600
O528      0.05400   0.07400   0.08400  -0.01200  -0.00400   0.02600
O529      0.05600   0.07900   0.07400   0.00100   0.01800   0.01300
O530      0.06300   0.07800   0.07000  -0.01800  -0.01700   0.01900
O531      0.06200   0.07600   0.06700  -0.00300  -0.01800  -0.02800
O532      0.05300   0.06400   0.07200  -0.00500  -0.00700   0.00200
N533      0.25200   0.06600   0.11300   0.00800   0.12800   0.01800
N534      0.36800   0.04000   0.19400   0.01300   0.19800   0.00600
N535      0.36700   0.05900   0.20400  -0.00200   0.22400  -0.00200
N536      0.11100   0.36700   0.17800   0.10000  -0.03700  -0.17000
N537      0.09400   0.32500   0.17600   0.06900  -0.04100  -0.16900
N538      0.05100   0.20500   0.15800   0.02500  -0.00700  -0.11200
N539      0.04600   0.21300   0.19600   0.02200   0.02700   0.16500
N540      0.09000   0.21000   0.21800   0.02100   0.04100   0.16000
N541      0.05400   0.26300   0.15300  -0.00200   0.00200   0.16400
C542      0.03900   0.06100   0.06500   0.00000   0.00200   0.00200
C543      0.13600   0.04400   0.08300  -0.00100   0.05500  -0.00500
C544      0.09200   0.03800   0.07600  -0.00200   0.03100   0.00700
C546      0.15700   0.09200   0.08500   0.00600   0.07300   0.00300
C547      0.16700   0.04800   0.09300   0.05600   0.07900   0.01100
C549      0.19900   0.03500   0.16200  -0.00100   0.12500  -0.00400
C550      0.24000   0.05600   0.16000   0.02500   0.15400   0.01800
C551      0.25800   0.05200   0.17900   0.05700   0.17300   0.04300
C553      0.33000   0.06500   0.17100   0.04500   0.20000   0.02300
C554      0.06900   0.35000   0.11100   0.06900   0.03300  -0.02000
C556      0.04200   0.31800   0.12000  -0.01300   0.00900  -0.12500
C557      0.13700   0.06100   0.18200   0.01600   0.12400  -0.03200
C559      0.06500   0.21000   0.18600   0.04000  -0.05200  -0.16200
C560      0.06200   0.19300   0.14000   0.01000  -0.00500  -0.11300
C562      0.05000   0.13200   0.13100  -0.00700   0.01100  -0.06700
C563      0.06600   0.08300   0.12000   0.00900  -0.03300  -0.04900
C565      0.03700   0.07800   0.07600  -0.01000   0.00900  -0.02400
C566      0.05600   0.07500   0.09400  -0.00200   0.00100  -0.00900
C568      0.04800   0.11900   0.06800   0.00800  -0.00600  -0.03500
C569      0.04200   0.14600   0.09700  -0.01900  -0.00100  -0.06200
C571      0.07100   0.06300   0.05600   0.01000  -0.01100   0.00300
C572      0.05600   0.10100   0.07900   0.02000   0.01100   0.02300
C573      0.04400   0.08800   0.06600   0.00800   0.01000   0.02200
C574      0.05200   0.04300   0.07800  -0.00200   0.01300   0.01200
C576      0.03700   0.09300   0.07200   0.00200   0.01900   0.03500
C577      0.04600   0.10300   0.11100   0.00000  -0.00700   0.06500
C579      0.03900   0.17200   0.15100  -0.00500  -0.00400   0.11500
C580      0.04100   0.19100   0.11000   0.02000   0.01000   0.10100
C582      0.08200   0.06300   0.07200  -0.01300  -0.00600   0.01500
C583      0.02000   0.31100   0.17700  -0.02300  -0.01700   0.20200
C585      0.08200   0.07600   0.06300  -0.01200  -0.00200   0.00000
C586      0.05100   0.29800   0.16800  -0.01200  -0.00500   0.19600
C587      0.06900   0.13300   0.11500  -0.02600   0.00100   0.05000
C589      0.05600   0.07800   0.07700  -0.01700  -0.00200   0.02100
C590      0.09100   0.10200   0.10400   0.03300  -0.00500   0.04600
C592      0.06600   0.07500   0.07500   0.00500  -0.00400   0.01100
Cu593     0.05140   0.04640   0.05800  -0.00230  -0.01200   0.00780
Cu594     0.05210   0.04300   0.05990  -0.00430  -0.01060   0.01020
O595      0.03900   0.07600   0.08600   0.00500  -0.01300   0.02100
O596      0.04800   0.08400   0.05500  -0.00100  -0.01000   0.01600
O597      0.06000   0.04600   0.07900  -0.00100  -0.02400  -0.00200
O598      0.09300   0.05300   0.06600   0.00500  -0.02300  -0.00100
O599      0.05700   0.06600   0.07500   0.00000  -0.00600   0.02600
O600      0.05000   0.10300   0.07400   0.00800  -0.00900   0.00500
O601      0.04800   0.04400   0.08400   0.01200  -0.02600  -0.00800
O602      0.07400   0.05400   0.08400   0.01200  -0.02600  -0.00400
O603      0.07900   0.05600   0.07400  -0.00100  -0.01300   0.01800
O604      0.07800   0.06300   0.07000   0.01800  -0.01900  -0.01700
O605      0.07600   0.06200   0.06700   0.00300   0.02800  -0.01800
O606      0.06400   0.05300   0.07200   0.00500  -0.00200  -0.00700
N607      0.06600   0.25200   0.11300  -0.00800  -0.01800   0.12800
N608      0.04000   0.36800   0.19400  -0.01300  -0.00600   0.19800
N609      0.05900   0.36700   0.20400   0.00200   0.00200   0.22400
N610      0.36700   0.11100   0.17800  -0.10000   0.17000  -0.03700
N611      0.32500   0.09400   0.17600  -0.06900   0.16900  -0.04100
N612      0.20500   0.05100   0.15800  -0.02500   0.11200  -0.00700
N613      0.21300   0.04600   0.19600  -0.02200  -0.16500   0.02700
N614      0.21000   0.09000   0.21800  -0.02100  -0.16000   0.04100
N615      0.26300   0.05400   0.15300   0.00200  -0.16400   0.00200
C616      0.06100   0.03900   0.06500   0.00000  -0.00200   0.00200
C617      0.04400   0.13600   0.08300   0.00100   0.00500   0.05500
C618      0.03800   0.09200   0.07600   0.00200  -0.00700   0.03100
C620      0.09200   0.15700   0.08500  -0.00600  -0.00300   0.07300
C621      0.04800   0.16700   0.09300  -0.05600  -0.01100   0.07900
C623      0.03500   0.19900   0.16200   0.00100   0.00400   0.12500
C624      0.05600   0.24000   0.16000  -0.02500  -0.01800   0.15400
C625      0.05200   0.25800   0.17900  -0.05700  -0.04300   0.17300
C627      0.06500   0.33000   0.17100  -0.04500  -0.02300   0.20000
C628      0.35000   0.06900   0.11100  -0.06900   0.02000   0.03300
C630      0.31800   0.04200   0.12000   0.01300   0.12500   0.00900
C631      0.06100   0.13700   0.18200  -0.01600   0.03200   0.12400
C633      0.21000   0.06500   0.18600  -0.04000   0.16200  -0.05200
C634      0.19300   0.06200   0.14000  -0.01000   0.11300  -0.00500
C636      0.13200   0.05000   0.13100   0.00700   0.06700   0.01100
C637      0.08300   0.06600   0.12000  -0.00900   0.04900  -0.03300
C639      0.07800   0.03700   0.07600   0.01000   0.02400   0.00900
C640      0.07500   0.05600   0.09400   0.00200   0.00900   0.00100
C642      0.11900   0.04800   0.06800  -0.00800   0.03500  -0.00600
C643      0.14600   0.04200   0.09700   0.01900   0.06200  -0.00100
C645      0.06300   0.07100   0.05600  -0.01000  -0.00300  -0.01100
C646      0.10100   0.05600   0.07900  -0.02000  -0.02300   0.01100
C647      0.08800   0.04400   0.06600  -0.00800  -0.02200   0.01000
C648      0.04300   0.05200   0.07800   0.00200  -0.01200   0.01300
C650      0.09300   0.03700   0.07200  -0.00200  -0.03500   0.01900
C651      0.10300   0.04600   0.11100   0.00000  -0.06500  -0.00700
C653      0.17200   0.03900   0.15100   0.00500  -0.11500  -0.00400
C654      0.19100   0.04100   0.11000  -0.02000  -0.10100   0.01000
C656      0.06300   0.08200   0.07200   0.01300  -0.01500  -0.00600
C657      0.31100   0.02000   0.17700   0.02300  -0.20200  -0.01700
C659      0.07600   0.08200   0.06300   0.01200   0.00000  -0.00200
C660      0.29800   0.05100   0.16800   0.01200  -0.19600  -0.00500
C661      0.13300   0.06900   0.11500   0.02600  -0.05000   0.00100
C663      0.07800   0.05600   0.07700   0.01700  -0.02100  -0.00200
C664      0.10200   0.09100   0.10400  -0.03300  -0.04600  -0.00500
C666      0.07500   0.06600   0.07500  -0.00500  -0.01100  -0.00400
Cu667     0.05140   0.04640   0.05800  -0.00230  -0.01200   0.00780
Cu668     0.05210   0.04300   0.05990  -0.00430  -0.01060   0.01020
O669      0.03900   0.07600   0.08600   0.00500  -0.01300   0.02100
O670      0.04800   0.08400   0.05500  -0.00100  -0.01000   0.01600
O671      0.06000   0.04600   0.07900  -0.00100  -0.02400  -0.00200
O672      0.09300   0.05300   0.06600   0.00500  -0.02300  -0.00100
O673      0.05700   0.06600   0.07500   0.00000  -0.00600   0.02600
O674      0.05000   0.10300   0.07400   0.00800  -0.00900   0.00500
O675      0.04800   0.04400   0.08400   0.01200  -0.02600  -0.00800
O676      0.07400   0.05400   0.08400   0.01200  -0.02600  -0.00400
O677      0.07900   0.05600   0.07400  -0.00100  -0.01300   0.01800
O678      0.07800   0.06300   0.07000   0.01800  -0.01900  -0.01700
O679      0.07600   0.06200   0.06700   0.00300   0.02800  -0.01800
O680      0.06400   0.05300   0.07200   0.00500  -0.00200  -0.00700
N681      0.06600   0.25200   0.11300  -0.00800  -0.01800   0.12800
N682      0.04000   0.36800   0.19400  -0.01300  -0.00600   0.19800
N683      0.05900   0.36700   0.20400   0.00200   0.00200   0.22400
N684      0.36700   0.11100   0.17800  -0.10000   0.17000  -0.03700
N685      0.32500   0.09400   0.17600  -0.06900   0.16900  -0.04100
N686      0.20500   0.05100   0.15800  -0.02500   0.11200  -0.00700
N687      0.21300   0.04600   0.19600  -0.02200  -0.16500   0.02700
N688      0.21000   0.09000   0.21800  -0.02100  -0.16000   0.04100
N689      0.26300   0.05400   0.15300   0.00200  -0.16400   0.00200
C690      0.06100   0.03900   0.06500   0.00000  -0.00200   0.00200
C691      0.04400   0.13600   0.08300   0.00100   0.00500   0.05500
C692      0.03800   0.09200   0.07600   0.00200  -0.00700   0.03100
C694      0.09200   0.15700   0.08500  -0.00600  -0.00300   0.07300
C695      0.04800   0.16700   0.09300  -0.05600  -0.01100   0.07900
C697      0.03500   0.19900   0.16200   0.00100   0.00400   0.12500
C698      0.05600   0.24000   0.16000  -0.02500  -0.01800   0.15400
C699      0.05200   0.25800   0.17900  -0.05700  -0.04300   0.17300
C701      0.06500   0.33000   0.17100  -0.04500  -0.02300   0.20000
C702      0.35000   0.06900   0.11100  -0.06900   0.02000   0.03300
C704      0.31800   0.04200   0.12000   0.01300   0.12500   0.00900
C705      0.06100   0.13700   0.18200  -0.01600   0.03200   0.12400
C707      0.21000   0.06500   0.18600  -0.04000   0.16200  -0.05200
C708      0.19300   0.06200   0.14000  -0.01000   0.11300  -0.00500
C710      0.13200   0.05000   0.13100   0.00700   0.06700   0.01100
C711      0.08300   0.06600   0.12000  -0.00900   0.04900  -0.03300
C713      0.07800   0.03700   0.07600   0.01000   0.02400   0.00900
C714      0.07500   0.05600   0.09400   0.00200   0.00900   0.00100
C716      0.11900   0.04800   0.06800  -0.00800   0.03500  -0.00600
C717      0.14600   0.04200   0.09700   0.01900   0.06200  -0.00100
C719      0.06300   0.07100   0.05600  -0.01000  -0.00300  -0.01100
C720      0.10100   0.05600   0.07900  -0.02000  -0.02300   0.01100
C721      0.08800   0.04400   0.06600  -0.00800  -0.02200   0.01000
C722      0.04300   0.05200   0.07800   0.00200  -0.01200   0.01300
C724      0.09300   0.03700   0.07200  -0.00200  -0.03500   0.01900
C725      0.10300   0.04600   0.11100   0.00000  -0.06500  -0.00700
C727      0.17200   0.03900   0.15100   0.00500  -0.11500  -0.00400
C728      0.19100   0.04100   0.11000  -0.02000  -0.10100   0.01000
C730      0.06300   0.08200   0.07200   0.01300  -0.01500  -0.00600
C731      0.31100   0.02000   0.17700   0.02300  -0.20200  -0.01700
C733      0.07600   0.08200   0.06300   0.01200   0.00000  -0.00200
C734      0.29800   0.05100   0.16800   0.01200  -0.19600  -0.00500
C735      0.13300   0.06900   0.11500   0.02600  -0.05000   0.00100
C737      0.07800   0.05600   0.07700   0.01700  -0.02100  -0.00200
C738      0.10200   0.09100   0.10400  -0.03300  -0.04600  -0.00500
C740      0.07500   0.06600   0.07500  -0.00500  -0.01100  -0.00400
Cu741     0.05140   0.04640   0.05800  -0.00230   0.01200  -0.00780
Cu742     0.05210   0.04300   0.05990  -0.00430   0.01060  -0.01020
O743      0.03900   0.07600   0.08600   0.00500   0.01300  -0.02100
O744      0.04800   0.08400   0.05500  -0.00100   0.01000  -0.01600
O745      0.06000   0.04600   0.07900  -0.00100   0.02400   0.00200
O746      0.09300   0.05300   0.06600   0.00500   0.02300   0.00100
O747      0.05700   0.06600   0.07500   0.00000   0.00600  -0.02600
O748      0.05000   0.10300   0.07400   0.00800   0.00900  -0.00500
O749      0.04800   0.04400   0.08400   0.01200   0.02600   0.00800
O750      0.07400   0.05400   0.08400   0.01200   0.02600   0.00400
O751      0.07900   0.05600   0.07400  -0.00100   0.01300  -0.01800
O752      0.07800   0.06300   0.07000   0.01800   0.01900   0.01700
O753      0.07600   0.06200   0.06700   0.00300  -0.02800   0.01800
O754      0.06400   0.05300   0.07200   0.00500   0.00200   0.00700
N755      0.06600   0.25200   0.11300  -0.00800   0.01800  -0.12800
N756      0.04000   0.36800   0.19400  -0.01300   0.00600  -0.19800
N757      0.05900   0.36700   0.20400   0.00200  -0.00200  -0.22400
N758      0.36700   0.11100   0.17800  -0.10000  -0.17000   0.03700
N759      0.32500   0.09400   0.17600  -0.06900  -0.16900   0.04100
N760      0.20500   0.05100   0.15800  -0.02500  -0.11200   0.00700
N761      0.21300   0.04600   0.19600  -0.02200   0.16500  -0.02700
N762      0.21000   0.09000   0.21800  -0.02100   0.16000  -0.04100
N763      0.26300   0.05400   0.15300   0.00200   0.16400  -0.00200
C764      0.06100   0.03900   0.06500   0.00000   0.00200  -0.00200
C765      0.04400   0.13600   0.08300   0.00100  -0.00500  -0.05500
C766      0.03800   0.09200   0.07600   0.00200   0.00700  -0.03100
C768      0.09200   0.15700   0.08500  -0.00600   0.00300  -0.07300
C769      0.04800   0.16700   0.09300  -0.05600   0.01100  -0.07900
C771      0.03500   0.19900   0.16200   0.00100  -0.00400  -0.12500
C772      0.05600   0.24000   0.16000  -0.02500   0.01800  -0.15400
C773      0.05200   0.25800   0.17900  -0.05700   0.04300  -0.17300
C775      0.06500   0.33000   0.17100  -0.04500   0.02300  -0.20000
C776      0.35000   0.06900   0.11100  -0.06900  -0.02000  -0.03300
C778      0.31800   0.04200   0.12000   0.01300  -0.12500  -0.00900
C779      0.06100   0.13700   0.18200  -0.01600  -0.03200  -0.12400
C781      0.21000   0.06500   0.18600  -0.04000  -0.16200   0.05200
C782      0.19300   0.06200   0.14000  -0.01000  -0.11300   0.00500
C784      0.13200   0.05000   0.13100   0.00700  -0.06700  -0.01100
C785      0.08300   0.06600   0.12000  -0.00900  -0.04900   0.03300
C787      0.07800   0.03700   0.07600   0.01000  -0.02400  -0.00900
C788      0.07500   0.05600   0.09400   0.00200  -0.00900  -0.00100
C790      0.11900   0.04800   0.06800  -0.00800  -0.03500   0.00600
C791      0.14600   0.04200   0.09700   0.01900  -0.06200   0.00100
C793      0.06300   0.07100   0.05600  -0.01000   0.00300   0.01100
C794      0.10100   0.05600   0.07900  -0.02000   0.02300  -0.01100
C795      0.08800   0.04400   0.06600  -0.00800   0.02200  -0.01000
C796      0.04300   0.05200   0.07800   0.00200   0.01200  -0.01300
C798      0.09300   0.03700   0.07200  -0.00200   0.03500  -0.01900
C799      0.10300   0.04600   0.11100   0.00000   0.06500   0.00700
C801      0.17200   0.03900   0.15100   0.00500   0.11500   0.00400
C802      0.19100   0.04100   0.11000  -0.02000   0.10100  -0.01000
C804      0.06300   0.08200   0.07200   0.01300   0.01500   0.00600
C805      0.31100   0.02000   0.17700   0.02300   0.20200   0.01700
C807      0.07600   0.08200   0.06300   0.01200   0.00000   0.00200
C808      0.29800   0.05100   0.16800   0.01200   0.19600   0.00500
C809      0.13300   0.06900   0.11500   0.02600   0.05000  -0.00100
C811      0.07800   0.05600   0.07700   0.01700   0.02100   0.00200
C812      0.10200   0.09100   0.10400  -0.03300   0.04600   0.00500
C814      0.07500   0.06600   0.07500  -0.00500   0.01100   0.00400
Cu815     0.05140   0.04640   0.05800  -0.00230   0.01200  -0.00780
Cu816     0.05210   0.04300   0.05990  -0.00430   0.01060  -0.01020
O817      0.03900   0.07600   0.08600   0.00500   0.01300  -0.02100
O818      0.04800   0.08400   0.05500  -0.00100   0.01000  -0.01600
O819      0.06000   0.04600   0.07900  -0.00100   0.02400   0.00200
O820      0.09300   0.05300   0.06600   0.00500   0.02300   0.00100
O821      0.05700   0.06600   0.07500   0.00000   0.00600  -0.02600
O822      0.05000   0.10300   0.07400   0.00800   0.00900  -0.00500
O823      0.04800   0.04400   0.08400   0.01200   0.02600   0.00800
O824      0.07400   0.05400   0.08400   0.01200   0.02600   0.00400
O825      0.07900   0.05600   0.07400  -0.00100   0.01300  -0.01800
O826      0.07800   0.06300   0.07000   0.01800   0.01900   0.01700
O827      0.07600   0.06200   0.06700   0.00300  -0.02800   0.01800
O828      0.06400   0.05300   0.07200   0.00500   0.00200   0.00700
N829      0.06600   0.25200   0.11300  -0.00800   0.01800  -0.12800
N830      0.04000   0.36800   0.19400  -0.01300   0.00600  -0.19800
N831      0.05900   0.36700   0.20400   0.00200  -0.00200  -0.22400
N832      0.36700   0.11100   0.17800  -0.10000  -0.17000   0.03700
N833      0.32500   0.09400   0.17600  -0.06900  -0.16900   0.04100
N834      0.20500   0.05100   0.15800  -0.02500  -0.11200   0.00700
N835      0.21300   0.04600   0.19600  -0.02200   0.16500  -0.02700
N836      0.21000   0.09000   0.21800  -0.02100   0.16000  -0.04100
N837      0.26300   0.05400   0.15300   0.00200   0.16400  -0.00200
C838      0.06100   0.03900   0.06500   0.00000   0.00200  -0.00200
C839      0.04400   0.13600   0.08300   0.00100  -0.00500  -0.05500
C840      0.03800   0.09200   0.07600   0.00200   0.00700  -0.03100
C842      0.09200   0.15700   0.08500  -0.00600   0.00300  -0.07300
C843      0.04800   0.16700   0.09300  -0.05600   0.01100  -0.07900
C845      0.03500   0.19900   0.16200   0.00100  -0.00400  -0.12500
C846      0.05600   0.24000   0.16000  -0.02500   0.01800  -0.15400
C847      0.05200   0.25800   0.17900  -0.05700   0.04300  -0.17300
C849      0.06500   0.33000   0.17100  -0.04500   0.02300  -0.20000
C850      0.35000   0.06900   0.11100  -0.06900  -0.02000  -0.03300
C852      0.31800   0.04200   0.12000   0.01300  -0.12500  -0.00900
C853      0.06100   0.13700   0.18200  -0.01600  -0.03200  -0.12400
C855      0.21000   0.06500   0.18600  -0.04000  -0.16200   0.05200
C856      0.19300   0.06200   0.14000  -0.01000  -0.11300   0.00500
C858      0.13200   0.05000   0.13100   0.00700  -0.06700  -0.01100
C859      0.08300   0.06600   0.12000  -0.00900  -0.04900   0.03300
C861      0.07800   0.03700   0.07600   0.01000  -0.02400  -0.00900
C862      0.07500   0.05600   0.09400   0.00200  -0.00900  -0.00100
C864      0.11900   0.04800   0.06800  -0.00800  -0.03500   0.00600
C865      0.14600   0.04200   0.09700   0.01900  -0.06200   0.00100
C867      0.06300   0.07100   0.05600  -0.01000   0.00300   0.01100
C868      0.10100   0.05600   0.07900  -0.02000   0.02300  -0.01100
C869      0.08800   0.04400   0.06600  -0.00800   0.02200  -0.01000
C870      0.04300   0.05200   0.07800   0.00200   0.01200  -0.01300
C872      0.09300   0.03700   0.07200  -0.00200   0.03500  -0.01900
C873      0.10300   0.04600   0.11100   0.00000   0.06500   0.00700
C875      0.17200   0.03900   0.15100   0.00500   0.11500   0.00400
C876      0.19100   0.04100   0.11000  -0.02000   0.10100  -0.01000
C878      0.06300   0.08200   0.07200   0.01300   0.01500   0.00600
C879      0.31100   0.02000   0.17700   0.02300   0.20200   0.01700
C881      0.07600   0.08200   0.06300   0.01200   0.00000   0.00200
C882      0.29800   0.05100   0.16800   0.01200   0.19600   0.00500
C883      0.13300   0.06900   0.11500   0.02600   0.05000  -0.00100
C885      0.07800   0.05600   0.07700   0.01700   0.02100   0.00200
C886      0.10200   0.09100   0.10400  -0.03300   0.04600   0.00500
C888      0.07500   0.06600   0.07500  -0.00500   0.01100   0.00400
Cu889     0.04640   0.05140   0.05800   0.00230  -0.00780  -0.01200
Cu890     0.04300   0.05210   0.05990   0.00430  -0.01020  -0.01060
O891      0.07600   0.03900   0.08600  -0.00500  -0.02100  -0.01300
O892      0.08400   0.04800   0.05500   0.00100  -0.01600  -0.01000
O893      0.04600   0.06000   0.07900   0.00100   0.00200  -0.02400
O894      0.05300   0.09300   0.06600  -0.00500   0.00100  -0.02300
O895      0.06600   0.05700   0.07500   0.00000  -0.02600  -0.00600
O896      0.10300   0.05000   0.07400  -0.00800  -0.00500  -0.00900
O897      0.04400   0.04800   0.08400  -0.01200   0.00800  -0.02600
O898      0.05400   0.07400   0.08400  -0.01200   0.00400  -0.02600
O899      0.05600   0.07900   0.07400   0.00100  -0.01800  -0.01300
O900      0.06300   0.07800   0.07000  -0.01800   0.01700  -0.01900
O901      0.06200   0.07600   0.06700  -0.00300   0.01800   0.02800
O902      0.05300   0.06400   0.07200  -0.00500   0.00700  -0.00200
N903      0.25200   0.06600   0.11300   0.00800  -0.12800  -0.01800
N904      0.36800   0.04000   0.19400   0.01300  -0.19800  -0.00600
N905      0.36700   0.05900   0.20400  -0.00200  -0.22400   0.00200
N906      0.11100   0.36700   0.17800   0.10000   0.03700   0.17000
N907      0.09400   0.32500   0.17600   0.06900   0.04100   0.16900
N908      0.05100   0.20500   0.15800   0.02500   0.00700   0.11200
N909      0.04600   0.21300   0.19600   0.02200  -0.02700  -0.16500
N910      0.09000   0.21000   0.21800   0.02100  -0.04100  -0.16000
N911      0.05400   0.26300   0.15300  -0.00200  -0.00200  -0.16400
C912      0.03900   0.06100   0.06500   0.00000  -0.00200  -0.00200
C913      0.13600   0.04400   0.08300  -0.00100  -0.05500   0.00500
C914      0.09200   0.03800   0.07600  -0.00200  -0.03100  -0.00700
C916      0.15700   0.09200   0.08500   0.00600  -0.07300  -0.00300
C917      0.16700   0.04800   0.09300   0.05600  -0.07900  -0.01100
C919      0.19900   0.03500   0.16200  -0.00100  -0.12500   0.00400
C920      0.24000   0.05600   0.16000   0.02500  -0.15400  -0.01800
C921      0.25800   0.05200   0.17900   0.05700  -0.17300  -0.04300
C923      0.33000   0.06500   0.17100   0.04500  -0.20000  -0.02300
C924      0.06900   0.35000   0.11100   0.06900  -0.03300   0.02000
C926      0.04200   0.31800   0.12000  -0.01300  -0.00900   0.12500
C927      0.13700   0.06100   0.18200   0.01600  -0.12400   0.03200
C929      0.06500   0.21000   0.18600   0.04000   0.05200   0.16200
C930      0.06200   0.19300   0.14000   0.01000   0.00500   0.11300
C932      0.05000   0.13200   0.13100  -0.00700  -0.01100   0.06700
C933      0.06600   0.08300   0.12000   0.00900   0.03300   0.04900
C935      0.03700   0.07800   0.07600  -0.01000  -0.00900   0.02400
C936      0.05600   0.07500   0.09400  -0.00200  -0.00100   0.00900
C938      0.04800   0.11900   0.06800   0.00800   0.00600   0.03500
C939      0.04200   0.14600   0.09700  -0.01900   0.00100   0.06200
C941      0.07100   0.06300   0.05600   0.01000   0.01100  -0.00300
C942      0.05600   0.10100   0.07900   0.02000  -0.01100  -0.02300
C943      0.04400   0.08800   0.06600   0.00800  -0.01000  -0.02200
C944      0.05200   0.04300   0.07800  -0.00200  -0.01300  -0.01200
C946      0.03700   0.09300   0.07200   0.00200  -0.01900  -0.03500
C947      0.04600   0.10300   0.11100   0.00000   0.00700  -0.06500
C949      0.03900   0.17200   0.15100  -0.00500   0.00400  -0.11500
C950      0.04100   0.19100   0.11000   0.02000  -0.01000  -0.10100
C952      0.08200   0.06300   0.07200  -0.01300   0.00600  -0.01500
C953      0.02000   0.31100   0.17700  -0.02300   0.01700  -0.20200
C955      0.08200   0.07600   0.06300  -0.01200   0.00200   0.00000
C956      0.05100   0.29800   0.16800  -0.01200   0.00500  -0.19600
C957      0.06900   0.13300   0.11500  -0.02600  -0.00100  -0.05000
C959      0.05600   0.07800   0.07700  -0.01700   0.00200  -0.02100
C960      0.09100   0.10200   0.10400   0.03300   0.00500  -0.04600
C962      0.06600   0.07500   0.07500   0.00500   0.00400  -0.01100
Cu963     0.04640   0.05140   0.05800   0.00230  -0.00780  -0.01200
Cu964     0.04300   0.05210   0.05990   0.00430  -0.01020  -0.01060
O965      0.07600   0.03900   0.08600  -0.00500  -0.02100  -0.01300
O966      0.08400   0.04800   0.05500   0.00100  -0.01600  -0.01000
O967      0.04600   0.06000   0.07900   0.00100   0.00200  -0.02400
O968      0.05300   0.09300   0.06600  -0.00500   0.00100  -0.02300
O969      0.06600   0.05700   0.07500   0.00000  -0.02600  -0.00600
O970      0.10300   0.05000   0.07400  -0.00800  -0.00500  -0.00900
O971      0.04400   0.04800   0.08400  -0.01200   0.00800  -0.02600
O972      0.05400   0.07400   0.08400  -0.01200   0.00400  -0.02600
O973      0.05600   0.07900   0.07400   0.00100  -0.01800  -0.01300
O974      0.06300   0.07800   0.07000  -0.01800   0.01700  -0.01900
O975      0.06200   0.07600   0.06700  -0.00300   0.01800   0.02800
O976      0.05300   0.06400   0.07200  -0.00500   0.00700  -0.00200
N977      0.25200   0.06600   0.11300   0.00800  -0.12800  -0.01800
N978      0.36800   0.04000   0.19400   0.01300  -0.19800  -0.00600
N979      0.36700   0.05900   0.20400  -0.00200  -0.22400   0.00200
N980      0.11100   0.36700   0.17800   0.10000   0.03700   0.17000
N981      0.09400   0.32500   0.17600   0.06900   0.04100   0.16900
N982      0.05100   0.20500   0.15800   0.02500   0.00700   0.11200
N983      0.04600   0.21300   0.19600   0.02200  -0.02700  -0.16500
N984      0.09000   0.21000   0.21800   0.02100  -0.04100  -0.16000
N985      0.05400   0.26300   0.15300  -0.00200  -0.00200  -0.16400
C986      0.03900   0.06100   0.06500   0.00000  -0.00200  -0.00200
C987      0.13600   0.04400   0.08300  -0.00100  -0.05500   0.00500
C988      0.09200   0.03800   0.07600  -0.00200  -0.03100  -0.00700
C990      0.15700   0.09200   0.08500   0.00600  -0.07300  -0.00300
C991      0.16700   0.04800   0.09300   0.05600  -0.07900  -0.01100
C993      0.19900   0.03500   0.16200  -0.00100  -0.12500   0.00400
C994      0.24000   0.05600   0.16000   0.02500  -0.15400  -0.01800
C995      0.25800   0.05200   0.17900   0.05700  -0.17300  -0.04300
C997      0.33000   0.06500   0.17100   0.04500  -0.20000  -0.02300
C998      0.06900   0.35000   0.11100   0.06900  -0.03300   0.02000
C1000     0.04200   0.31800   0.12000  -0.01300  -0.00900   0.12500
C1001     0.13700   0.06100   0.18200   0.01600  -0.12400   0.03200
C1003     0.06500   0.21000   0.18600   0.04000   0.05200   0.16200
C1004     0.06200   0.19300   0.14000   0.01000   0.00500   0.11300
C1006     0.05000   0.13200   0.13100  -0.00700  -0.01100   0.06700
C1007     0.06600   0.08300   0.12000   0.00900   0.03300   0.04900
C1009     0.03700   0.07800   0.07600  -0.01000  -0.00900   0.02400
C1010     0.05600   0.07500   0.09400  -0.00200  -0.00100   0.00900
C1012     0.04800   0.11900   0.06800   0.00800   0.00600   0.03500
C1013     0.04200   0.14600   0.09700  -0.01900   0.00100   0.06200
C1015     0.07100   0.06300   0.05600   0.01000   0.01100  -0.00300
C1016     0.05600   0.10100   0.07900   0.02000  -0.01100  -0.02300
C1017     0.04400   0.08800   0.06600   0.00800  -0.01000  -0.02200
C1018     0.05200   0.04300   0.07800  -0.00200  -0.01300  -0.01200
C1020     0.03700   0.09300   0.07200   0.00200  -0.01900  -0.03500
C1021     0.04600   0.10300   0.11100   0.00000   0.00700  -0.06500
C1023     0.03900   0.17200   0.15100  -0.00500   0.00400  -0.11500
C1024     0.04100   0.19100   0.11000   0.02000  -0.01000  -0.10100
C1026     0.08200   0.06300   0.07200  -0.01300   0.00600  -0.01500
C1027     0.02000   0.31100   0.17700  -0.02300   0.01700  -0.20200
C1029     0.08200   0.07600   0.06300  -0.01200   0.00200   0.00000
C1030     0.05100   0.29800   0.16800  -0.01200   0.00500  -0.19600
C1031     0.06900   0.13300   0.11500  -0.02600  -0.00100  -0.05000
C1033     0.05600   0.07800   0.07700  -0.01700   0.00200  -0.02100
C1034     0.09100   0.10200   0.10400   0.03300   0.00500  -0.04600
C1036     0.06600   0.07500   0.07500   0.00500   0.00400  -0.01100
Cu1037    0.04640   0.05140   0.05800   0.00230   0.00780   0.01200
Cu1038    0.04300   0.05210   0.05990   0.00430   0.01020   0.01060
O1039     0.07600   0.03900   0.08600  -0.00500   0.02100   0.01300
O1040     0.08400   0.04800   0.05500   0.00100   0.01600   0.01000
O1041     0.04600   0.06000   0.07900   0.00100  -0.00200   0.02400
O1042     0.05300   0.09300   0.06600  -0.00500  -0.00100   0.02300
O1043     0.06600   0.05700   0.07500   0.00000   0.02600   0.00600
O1044     0.10300   0.05000   0.07400  -0.00800   0.00500   0.00900
O1045     0.04400   0.04800   0.08400  -0.01200  -0.00800   0.02600
O1046     0.05400   0.07400   0.08400  -0.01200  -0.00400   0.02600
O1047     0.05600   0.07900   0.07400   0.00100   0.01800   0.01300
O1048     0.06300   0.07800   0.07000  -0.01800  -0.01700   0.01900
O1049     0.06200   0.07600   0.06700  -0.00300  -0.01800  -0.02800
O1050     0.05300   0.06400   0.07200  -0.00500  -0.00700   0.00200
N1051     0.25200   0.06600   0.11300   0.00800   0.12800   0.01800
N1052     0.36800   0.04000   0.19400   0.01300   0.19800   0.00600
N1053     0.36700   0.05900   0.20400  -0.00200   0.22400  -0.00200
N1054     0.11100   0.36700   0.17800   0.10000  -0.03700  -0.17000
N1055     0.09400   0.32500   0.17600   0.06900  -0.04100  -0.16900
N1056     0.05100   0.20500   0.15800   0.02500  -0.00700  -0.11200
N1057     0.04600   0.21300   0.19600   0.02200   0.02700   0.16500
N1058     0.09000   0.21000   0.21800   0.02100   0.04100   0.16000
N1059     0.05400   0.26300   0.15300  -0.00200   0.00200   0.16400
C1060     0.03900   0.06100   0.06500   0.00000   0.00200   0.00200
C1061     0.13600   0.04400   0.08300  -0.00100   0.05500  -0.00500
C1062     0.09200   0.03800   0.07600  -0.00200   0.03100   0.00700
C1064     0.15700   0.09200   0.08500   0.00600   0.07300   0.00300
C1065     0.16700   0.04800   0.09300   0.05600   0.07900   0.01100
C1067     0.19900   0.03500   0.16200  -0.00100   0.12500  -0.00400
C1068     0.24000   0.05600   0.16000   0.02500   0.15400   0.01800
C1069     0.25800   0.05200   0.17900   0.05700   0.17300   0.04300
C1071     0.33000   0.06500   0.17100   0.04500   0.20000   0.02300
C1072     0.06900   0.35000   0.11100   0.06900   0.03300  -0.02000
C1074     0.04200   0.31800   0.12000  -0.01300   0.00900  -0.12500
C1075     0.13700   0.06100   0.18200   0.01600   0.12400  -0.03200
C1077     0.06500   0.21000   0.18600   0.04000  -0.05200  -0.16200
C1078     0.06200   0.19300   0.14000   0.01000  -0.00500  -0.11300
C1080     0.05000   0.13200   0.13100  -0.00700   0.01100  -0.06700
C1081     0.06600   0.08300   0.12000   0.00900  -0.03300  -0.04900
C1083     0.03700   0.07800   0.07600  -0.01000   0.00900  -0.02400
C1084     0.05600   0.07500   0.09400  -0.00200   0.00100  -0.00900
C1086     0.04800   0.11900   0.06800   0.00800  -0.00600  -0.03500
C1087     0.04200   0.14600   0.09700  -0.01900  -0.00100  -0.06200
C1089     0.07100   0.06300   0.05600   0.01000  -0.01100   0.00300
C1090     0.05600   0.10100   0.07900   0.02000   0.01100   0.02300
C1091     0.04400   0.08800   0.06600   0.00800   0.01000   0.02200
C1092     0.05200   0.04300   0.07800  -0.00200   0.01300   0.01200
C1094     0.03700   0.09300   0.07200   0.00200   0.01900   0.03500
C1095     0.04600   0.10300   0.11100   0.00000  -0.00700   0.06500
C1097     0.03900   0.17200   0.15100  -0.00500  -0.00400   0.11500
C1098     0.04100   0.19100   0.11000   0.02000   0.01000   0.10100
C1100     0.08200   0.06300   0.07200  -0.01300  -0.00600   0.01500
C1101     0.02000   0.31100   0.17700  -0.02300  -0.01700   0.20200
C1103     0.08200   0.07600   0.06300  -0.01200  -0.00200   0.00000
C1104     0.05100   0.29800   0.16800  -0.01200  -0.00500   0.19600
C1105     0.06900   0.13300   0.11500  -0.02600   0.00100   0.05000
C1107     0.05600   0.07800   0.07700  -0.01700  -0.00200   0.02100
C1108     0.09100   0.10200   0.10400   0.03300  -0.00500   0.04600
C1110     0.06600   0.07500   0.07500   0.00500  -0.00400   0.01100
Cu1111    0.04640   0.05140   0.05800   0.00230   0.00780   0.01200
Cu1112    0.04300   0.05210   0.05990   0.00430   0.01020   0.01060
O1113     0.07600   0.03900   0.08600  -0.00500   0.02100   0.01300
O1114     0.08400   0.04800   0.05500   0.00100   0.01600   0.01000
O1115     0.04600   0.06000   0.07900   0.00100  -0.00200   0.02400
O1116     0.05300   0.09300   0.06600  -0.00500  -0.00100   0.02300
O1117     0.06600   0.05700   0.07500   0.00000   0.02600   0.00600
O1118     0.10300   0.05000   0.07400  -0.00800   0.00500   0.00900
O1119     0.04400   0.04800   0.08400  -0.01200  -0.00800   0.02600
O1120     0.05400   0.07400   0.08400  -0.01200  -0.00400   0.02600
O1121     0.05600   0.07900   0.07400   0.00100   0.01800   0.01300
O1122     0.06300   0.07800   0.07000  -0.01800  -0.01700   0.01900
O1123     0.06200   0.07600   0.06700  -0.00300  -0.01800  -0.02800
O1124     0.05300   0.06400   0.07200  -0.00500  -0.00700   0.00200
N1125     0.25200   0.06600   0.11300   0.00800   0.12800   0.01800
N1126     0.36800   0.04000   0.19400   0.01300   0.19800   0.00600
N1127     0.36700   0.05900   0.20400  -0.00200   0.22400  -0.00200
N1128     0.11100   0.36700   0.17800   0.10000  -0.03700  -0.17000
N1129     0.09400   0.32500   0.17600   0.06900  -0.04100  -0.16900
N1130     0.05100   0.20500   0.15800   0.02500  -0.00700  -0.11200
N1131     0.04600   0.21300   0.19600   0.02200   0.02700   0.16500
N1132     0.09000   0.21000   0.21800   0.02100   0.04100   0.16000
N1133     0.05400   0.26300   0.15300  -0.00200   0.00200   0.16400
C1134     0.03900   0.06100   0.06500   0.00000   0.00200   0.00200
C1135     0.13600   0.04400   0.08300  -0.00100   0.05500  -0.00500
C1136     0.09200   0.03800   0.07600  -0.00200   0.03100   0.00700
C1138     0.15700   0.09200   0.08500   0.00600   0.07300   0.00300
C1139     0.16700   0.04800   0.09300   0.05600   0.07900   0.01100
C1141     0.19900   0.03500   0.16200  -0.00100   0.12500  -0.00400
C1142     0.24000   0.05600   0.16000   0.02500   0.15400   0.01800
C1143     0.25800   0.05200   0.17900   0.05700   0.17300   0.04300
C1145     0.33000   0.06500   0.17100   0.04500   0.20000   0.02300
C1146     0.06900   0.35000   0.11100   0.06900   0.03300  -0.02000
C1148     0.04200   0.31800   0.12000  -0.01300   0.00900  -0.12500
C1149     0.13700   0.06100   0.18200   0.01600   0.12400  -0.03200
C1151     0.06500   0.21000   0.18600   0.04000  -0.05200  -0.16200
C1152     0.06200   0.19300   0.14000   0.01000  -0.00500  -0.11300
C1154     0.05000   0.13200   0.13100  -0.00700   0.01100  -0.06700
C1155     0.06600   0.08300   0.12000   0.00900  -0.03300  -0.04900
C1157     0.03700   0.07800   0.07600  -0.01000   0.00900  -0.02400
C1158     0.05600   0.07500   0.09400  -0.00200   0.00100  -0.00900
C1160     0.04800   0.11900   0.06800   0.00800  -0.00600  -0.03500
C1161     0.04200   0.14600   0.09700  -0.01900  -0.00100  -0.06200
C1163     0.07100   0.06300   0.05600   0.01000  -0.01100   0.00300
C1164     0.05600   0.10100   0.07900   0.02000   0.01100   0.02300
C1165     0.04400   0.08800   0.06600   0.00800   0.01000   0.02200
C1166     0.05200   0.04300   0.07800  -0.00200   0.01300   0.01200
C1168     0.03700   0.09300   0.07200   0.00200   0.01900   0.03500
C1169     0.04600   0.10300   0.11100   0.00000  -0.00700   0.06500
C1171     0.03900   0.17200   0.15100  -0.00500  -0.00400   0.11500
C1172     0.04100   0.19100   0.11000   0.02000   0.01000   0.10100
C1174     0.08200   0.06300   0.07200  -0.01300  -0.00600   0.01500
C1175     0.02000   0.31100   0.17700  -0.02300  -0.01700   0.20200
C1177     0.08200   0.07600   0.06300  -0.01200  -0.00200   0.00000
C1178     0.05100   0.29800   0.16800  -0.01200  -0.00500   0.19600
C1179     0.06900   0.13300   0.11500  -0.02600   0.00100   0.05000
C1181     0.05600   0.07800   0.07700  -0.01700  -0.00200   0.02100
C1182     0.09100   0.10200   0.10400   0.03300  -0.00500   0.04600
C1184     0.06600   0.07500   0.07500   0.00500  -0.00400   0.01100
Cu1185    0.05610   0.03840   0.05140   0.00020   0.00000   0.00000
Cu1186    0.05590   0.03800   0.05160  -0.00030   0.00000   0.00000
Cu1187    0.05610   0.03840   0.05140   0.00020   0.00000   0.00000
Cu1188    0.05590   0.03800   0.05160  -0.00030   0.00000   0.00000
Cu1189    0.05610   0.03840   0.05140   0.00020   0.00000   0.00000
Cu1190    0.05590   0.03800   0.05160  -0.00030   0.00000   0.00000
Cu1191    0.05610   0.03840   0.05140   0.00020   0.00000   0.00000
Cu1192    0.05590   0.03800   0.05160  -0.00030   0.00000   0.00000
Cu1193    0.03840   0.05610   0.05140  -0.00020   0.00000   0.00000
Cu1194    0.03800   0.05590   0.05160   0.00030   0.00000   0.00000
Cu1195    0.03840   0.05610   0.05140  -0.00020   0.00000   0.00000
Cu1196    0.03800   0.05590   0.05160   0.00030   0.00000   0.00000
Cu1197    0.03840   0.05610   0.05140  -0.00020   0.00000   0.00000
Cu1198    0.03800   0.05590   0.05160   0.00030   0.00000   0.00000
Cu1199    0.03840   0.05610   0.05140  -0.00020   0.00000   0.00000
Cu1200    0.03800   0.05590   0.05160   0.00030   0.00000   0.00000
loop_
_geom_bond_atom_site_label_1
_geom_bond_atom_site_label_2
_geom_bond_distance
_geom_bond_site_symmetry_2
_ccdc_geom_bond_type
Cu1    Cu2     2.649   .     S
Cu1    O3      1.936   .     S
Cu1    O5      1.974   .     S
Cu1    O7      1.863   .     S
Cu1    O9      1.910   .     S
Cu2    O4      1.951   .     S
Cu2    O6      1.959   .     S
Cu2    O8      1.932   .     S
Cu2    O10     1.971   .     S
O3     C24     1.180   .     A
O4     C24     1.303   .     A
O5     C54     1.220   .     A
O6     C54     1.342   .     A
O7     C67     1.367   .     A
O8     C67     1.325   .     A
O9     C74     1.285   .     A
O10    C74     1.338   .     A
O11    Cu1185  1.960   .     S
O11    C64     1.385   .     A
O12    Cu1186  1.955   .     S
O12    C64     1.280   .     A
O13    Cu1185  1.929   .     S
O13    C53     1.290   .     A
O14    Cu1186  1.939   1_556 S
O14    C793    1.271   .     A
N15    N16     1.448   .     A
N15    C28     1.502   .     S
N15    C29     1.216   .     A
N16    N17     1.392   .     A
N17    C31     1.134   .     A
N18    N19     1.320   .     A
N18    C41     1.281   .     A
N19    N20     1.353   .     A
N20    C42     1.282   .     A
N20    C44     1.368   .     S
N21    N22     1.366   .     A
N21    C61     1.411   .     S
N21    C65     1.374   .     A
N22    N23     1.394   .     A
N23    C68     1.152   .     A
C24    C25     1.586   .     S
C25    C26     1.282   .     A
C25    C513    1.433   .     A
C26    H27     0.941   .     S
C26    C28     1.346   .     A
C28    C516    1.451   .     A
C29    H30     0.941   .     S
C29    C31     1.465   .     A
C31    C32     1.435   .     S
C32    C33     1.429   .     A
C32    C39     1.427   .     A
C33    H34     0.940   .     S
C33    C35     1.234   .     A
C35    C998    1.604   .     A
C35    C1178   1.516   .     S
C36    H37     0.939   .     S
C36    C38     1.299   1_565 A
C36    C1145   1.604   .     A
C38    C36     1.299   1_545 A
C38    C41     1.357   .     S
C38    C1149   1.473   .     A
C39    H40     0.941   .     S
C39    C1000   1.473   .     A
C41    C42     1.571   .     A
C42    H43     0.940   .     S
C44    C45     1.528   .     A
C44    C51     1.312   .     A
C45    H46     0.938   .     S
C45    C47     1.439   .     A
C47    C48     1.298   .     A
C47    C511    1.358   .     S
C48    H49     0.939   .     S
C48    C50     1.405   .     A
C50    C51     1.457   .     A
C50    C53     1.443   .     S
C51    H52     0.939   .     S
C53    O754    1.271   .     A
C54    C55     1.484   .     S
C55    C56     1.341   .     A
C55    C62     1.344   .     A
C56    H57     0.941   .     S
C56    C58     1.439   .     A
C58    C59     1.316   .     A
C58    C64     1.390   .     S
C59    H60     0.943   .     S
C59    C61     1.376   .     A
C61    C62     1.435   .     A
C62    H63     0.941   .     S
C65    H66     0.941   .     S
C65    C68     1.440   .     A
C67    C343    1.358   .     S
C68    C997    1.516   .     S
C69    H70     0.938   .     S
C69    C71     1.346   .     A
C69    C321    1.433   .     A
C71    C72     1.371   .     A
C71    C74     1.448   .     S
C72    H73     0.939   .     S
C72    C324    1.451   .     A
Cu75   Cu76    2.649   .     S
Cu75   O77     1.936   .     S
Cu75   O79     1.974   .     S
Cu75   O81     1.863   .     S
Cu75   O83     1.910   .     S
Cu76   O78     1.951   .     S
Cu76   O80     1.959   .     S
Cu76   O82     1.932   .     S
Cu76   O84     1.971   .     S
O77    C98     1.180   .     A
O78    C98     1.303   .     A
O79    C128    1.220   .     A
O80    C128    1.342   .     A
O81    C141    1.367   .     A
O82    C141    1.325   .     A
O83    C148    1.285   .     A
O84    C148    1.338   .     A
O85    Cu1187  1.960   .     S
O85    C138    1.385   .     A
O86    Cu1188  1.955   .     S
O86    C138    1.280   .     A
O87    Cu1187  1.929   1_655 S
O87    C127    1.290   .     A
O88    Cu1188  1.939   .     S
O88    C867    1.271   1_455 A
N89    N90     1.448   .     A
N89    C102    1.502   .     S
N89    C103    1.216   .     A
N90    N91     1.392   .     A
N91    C105    1.134   .     A
N92    N93     1.320   .     A
N92    C115    1.281   .     A
N93    N94     1.353   .     A
N94    C116    1.282   .     A
N94    C118    1.368   .     S
N95    N96     1.366   .     A
N95    C135    1.411   .     S
N95    C139    1.374   .     A
N96    N97     1.394   .     A
N97    C142    1.152   .     A
C98    C99     1.586   .     S
C99    C100    1.282   .     A
C99    C587    1.433   .     A
C100   H101    0.941   .     S
C100   C102    1.346   .     A
C102   C590    1.451   1_455 A
C103   H104    0.941   1_455 S
C103   C105    1.465   .     A
H104   C103    0.941   1_655 S
C105   C106    1.435   .     S
C106   C107    1.429   1_455 A
C106   C113    1.427   .     A
C107   C106    1.429   1_655 A
C107   H108    0.940   .     S
C107   C109    1.234   .     A
C109   C924    1.604   .     A
C109   C1104   1.516   .     S
C110   H111    0.939   .     S
C110   C112    1.299   .     A
C110   C1071   1.604   .     A
C112   C115    1.357   .     S
C112   C1075   1.473   .     A
C113   H114    0.941   .     S
C113   C926    1.473   .     A
C115   C116    1.571   .     A
C116   H117    0.940   .     S
C118   C119    1.528   .     A
C118   C125    1.312   .     A
C119   H120    0.938   .     S
C119   C121    1.439   .     A
C121   C122    1.298   .     A
C121   C585    1.358   .     S
C122   H123    0.939   .     S
C122   C124    1.405   .     A
C124   C125    1.457   .     A
C124   C127    1.443   .     S
C125   H126    0.939   .     S
C127   O828    1.271   1_655 A
C128   C129    1.484   .     S
C129   C130    1.341   .     A
C129   C136    1.344   .     A
C130   H131    0.941   .     S
C130   C132    1.439   .     A
C132   C133    1.316   .     A
C132   C138    1.390   .     S
C133   H134    0.943   .     S
C133   C135    1.376   .     A
C135   C136    1.435   .     A
C136   H137    0.941   .     S
C139   H140    0.941   .     S
C139   C142    1.440   .     A
C141   C417    1.358   .     S
C142   C923    1.516   .     S
C143   H144    0.938   .     S
C143   C145    1.346   1_545 A
C143   C395    1.433   .     A
C145   C143    1.346   1_565 A
C145   C146    1.371   .     A
C145   C148    1.448   .     S
C146   H147    0.939   .     S
C146   C398    1.451   1_565 A
Cu149  Cu150   2.649   .     S
Cu149  O151    1.936   .     S
Cu149  O153    1.974   .     S
Cu149  O155    1.863   .     S
Cu149  O157    1.910   .     S
Cu150  O152    1.951   .     S
Cu150  O154    1.959   .     S
Cu150  O156    1.932   .     S
Cu150  O158    1.971   .     S
O151   C172    1.180   .     A
O152   C172    1.303   .     A
O153   C202    1.220   .     A
O154   C202    1.342   .     A
O155   C215    1.367   .     A
O156   C215    1.325   .     A
O157   C222    1.285   .     A
O158   C222    1.338   .     A
O159   Cu1189  1.960   .     S
O159   C212    1.385   .     A
O160   Cu1190  1.955   .     S
O160   C212    1.280   .     A
O161   Cu1189  1.929   .     S
O161   C201    1.290   .     A
O162   Cu1190  1.939   1_556 S
O162   C645    1.271   .     A
N163   N164    1.448   .     A
N163   C176    1.502   .     S
N163   C177    1.216   .     A
N164   N165    1.392   .     A
N165   C179    1.134   .     A
N166   N167    1.320   .     A
N166   C189    1.281   .     A
N167   N168    1.353   .     A
N168   C190    1.282   .     A
N168   C192    1.368   .     S
N169   N170    1.366   .     A
N169   C209    1.411   .     S
N169   C213    1.374   .     A
N170   N171    1.394   .     A
N171   C216    1.152   .     A
C172   C173    1.586   .     S
C173   C174    1.282   .     A
C173   C365    1.433   .     A
C174   H175    0.941   .     S
C174   C176    1.346   .     A
C176   C368    1.451   .     A
C177   H178    0.941   .     S
C177   C179    1.465   .     A
C179   C180    1.435   .     S
C180   C181    1.429   .     A
C180   C187    1.427   .     A
C181   H182    0.940   .     S
C181   C183    1.234   .     A
C183   C1146   1.604   .     A
C183   C1030   1.516   .     S
C184   H185    0.939   .     S
C184   C186    1.299   1_545 A
C184   C997    1.604   .     A
C186   C184    1.299   1_565 A
C186   C189    1.357   .     S
C186   C1001   1.473   .     A
C187   H188    0.941   .     S
C187   C1148   1.473   .     A
C189   C190    1.571   .     A
C190   H191    0.940   .     S
C192   C193    1.528   .     A
C192   C199    1.312   .     A
C193   H194    0.938   .     S
C193   C195    1.439   .     A
C195   C196    1.298   .     A
C195   C363    1.358   .     S
C196   H197    0.939   .     S
C196   C198    1.405   .     A
C198   C199    1.457   .     A
C198   C201    1.443   .     S
C199   H200    0.939   .     S
C201   O606    1.271   .     A
C202   C203    1.484   .     S
C203   C204    1.341   .     A
C203   C210    1.344   .     A
C204   H205    0.941   .     S
C204   C206    1.439   .     A
C206   C207    1.316   .     A
C206   C212    1.390   .     S
C207   H208    0.943   .     S
C207   C209    1.376   .     A
C209   C210    1.435   .     A
C210   H211    0.941   .     S
C213   H214    0.941   .     S
C213   C216    1.440   .     A
C215   C491    1.358   .     S
C216   C1145   1.516   .     S
C217   H218    0.938   .     S
C217   C219    1.346   .     A
C217   C469    1.433   .     A
C219   C220    1.371   .     A
C219   C222    1.448   .     S
C220   H221    0.939   .     S
C220   C472    1.451   .     A
Cu223  Cu224   2.649   .     S
Cu223  O225    1.936   .     S
Cu223  O227    1.974   .     S
Cu223  O229    1.863   .     S
Cu223  O231    1.910   .     S
Cu224  O226    1.951   .     S
Cu224  O228    1.959   .     S
Cu224  O230    1.932   .     S
Cu224  O232    1.971   .     S
O225   C246    1.180   .     A
O226   C246    1.303   .     A
O227   C276    1.220   .     A
O228   C276    1.342   .     A
O229   C289    1.367   .     A
O230   C289    1.325   .     A
O231   C296    1.285   .     A
O232   C296    1.338   .     A
O233   Cu1191  1.960   .     S
O233   C286    1.385   .     A
O234   Cu1192  1.955   .     S
O234   C286    1.280   .     A
O235   Cu1191  1.929   1_455 S
O235   C275    1.290   .     A
O236   Cu1192  1.939   .     S
O236   C719    1.271   1_655 A
N237   N238    1.448   .     A
N237   C250    1.502   .     S
N237   C251    1.216   .     A
N238   N239    1.392   .     A
N239   C253    1.134   .     A
N240   N241    1.320   .     A
N240   C263    1.281   .     A
N241   N242    1.353   .     A
N242   C264    1.282   .     A
N242   C266    1.368   .     S
N243   N244    1.366   .     A
N243   C283    1.411   .     S
N243   C287    1.374   .     A
N244   N245    1.394   .     A
N245   C290    1.152   .     A
C246   C247    1.586   .     S
C247   C248    1.282   .     A
C247   C439    1.433   .     A
C248   H249    0.941   .     S
C248   C250    1.346   .     A
C250   C442    1.451   1_655 A
C251   H252    0.941   1_655 S
C251   C253    1.465   .     A
H252   C251    0.941   1_455 S
C253   C254    1.435   .     S
C254   C255    1.429   1_655 A
C254   C261    1.427   .     A
C255   C254    1.429   1_455 A
C255   H256    0.940   .     S
C255   C257    1.234   .     A
C257   C1072   1.604   .     A
C257   C956    1.516   .     S
C258   H259    0.939   .     S
C258   C260    1.299   .     A
C258   C923    1.604   .     A
C260   C263    1.357   .     S
C260   C927    1.473   .     A
C261   H262    0.941   .     S
C261   C1074   1.473   .     A
C263   C264    1.571   .     A
C264   H265    0.940   .     S
C266   C267    1.528   .     A
C266   C273    1.312   .     A
C267   H268    0.938   .     S
C267   C269    1.439   .     A
C269   C270    1.298   .     A
C269   C437    1.358   .     S
C270   H271    0.939   .     S
C270   C272    1.405   .     A
C272   C273    1.457   .     A
C272   C275    1.443   .     S
C273   H274    0.939   .     S
C275   O680    1.271   1_455 A
C276   C277    1.484   .     S
C277   C278    1.341   .     A
C277   C284    1.344   .     A
C278   H279    0.941   .     S
C278   C280    1.439   .     A
C280   C281    1.316   .     A
C280   C286    1.390   .     S
C281   H282    0.943   .     S
C281   C283    1.376   .     A
C283   C284    1.435   .     A
C284   H285    0.941   .     S
C287   H288    0.941   .     S
C287   C290    1.440   .     A
C289   C565    1.358   .     S
C290   C1071   1.516   .     S
C291   H292    0.938   .     S
C291   C293    1.346   1_565 A
C291   C543    1.433   .     A
C293   C291    1.346   1_545 A
C293   C294    1.371   .     A
C293   C296    1.448   .     S
C294   H295    0.939   .     S
C294   C546    1.451   1_545 A
Cu297  Cu298   2.649   .     S
Cu297  O299    1.936   .     S
Cu297  O301    1.974   .     S
Cu297  O303    1.863   .     S
Cu297  O305    1.910   .     S
Cu298  O300    1.951   .     S
Cu298  O302    1.959   .     S
Cu298  O304    1.932   .     S
Cu298  O306    1.971   .     S
O299   C320    1.180   .     A
O300   C320    1.303   .     A
O301   C350    1.220   .     A
O302   C350    1.342   .     A
O303   C363    1.367   .     A
O304   C363    1.325   .     A
O305   C370    1.285   .     A
O306   C370    1.338   .     A
O307   Cu1193  1.960   .     S
O307   C360    1.385   .     A
O308   Cu1194  1.955   .     S
O308   C360    1.280   .     A
O309   Cu1193  1.929   .     S
O309   C349    1.290   .     A
O310   Cu1194  1.939   1_556 S
O310   C1089   1.271   .     A
N311   N312    1.448   .     A
N311   C324    1.502   .     S
N311   C325    1.216   .     A
N312   N313    1.392   .     A
N313   C327    1.134   .     A
N314   N315    1.320   .     A
N314   C337    1.281   .     A
N315   N316    1.353   .     A
N316   C338    1.282   .     A
N316   C340    1.368   .     S
N317   N318    1.366   .     A
N317   C357    1.411   .     S
N317   C361    1.374   .     A
N318   N319    1.394   .     A
N319   C364    1.152   .     A
C320   C321    1.586   .     S
C321   C322    1.282   .     A
C322   H323    0.941   .     S
C322   C324    1.346   .     A
C325   H326    0.941   .     S
C325   C327    1.465   .     A
C327   C328    1.435   .     S
C328   C329    1.429   .     A
C328   C335    1.427   .     A
C329   H330    0.940   .     S
C329   C331    1.234   .     A
C331   C850    1.604   .     A
C331   C734    1.516   .     S
C332   H333    0.939   .     S
C332   C334    1.299   1_455 A
C332   C701    1.604   .     A
C334   C332    1.299   1_655 A
C334   C337    1.357   .     S
C334   C705    1.473   .     A
C335   H336    0.941   .     S
C335   C852    1.473   .     A
C337   C338    1.571   .     A
C338   H339    0.940   .     S
C340   C341    1.528   .     A
C340   C347    1.312   .     A
C341   H342    0.938   .     S
C341   C343    1.439   .     A
C343   C344    1.298   .     A
C344   H345    0.939   .     S
C344   C346    1.405   .     A
C346   C347    1.457   .     A
C346   C349    1.443   .     S
C347   H348    0.939   .     S
C349   O1050   1.271   .     A
C350   C351    1.484   .     S
C351   C352    1.341   .     A
C351   C358    1.344   .     A
C352   H353    0.941   .     S
C352   C354    1.439   .     A
C354   C355    1.316   .     A
C354   C360    1.390   .     S
C355   H356    0.943   .     S
C355   C357    1.376   .     A
C357   C358    1.435   .     A
C358   H359    0.941   .     S
C361   H362    0.941   .     S
C361   C364    1.440   .     A
C364   C849    1.516   .     S
C365   H366    0.938   .     S
C365   C367    1.346   .     A
C367   C368    1.371   .     A
C367   C370    1.448   .     S
C368   H369    0.939   .     S
Cu371  Cu372   2.649   .     S
Cu371  O373    1.936   .     S
Cu371  O375    1.974   .     S
Cu371  O377    1.863   .     S
Cu371  O379    1.910   .     S
Cu372  O374    1.951   .     S
Cu372  O376    1.959   .     S
Cu372  O378    1.932   .     S
Cu372  O380    1.971   .     S
O373   C394    1.180   .     A
O374   C394    1.303   .     A
O375   C424    1.220   .     A
O376   C424    1.342   .     A
O377   C437    1.367   .     A
O378   C437    1.325   .     A
O379   C444    1.285   .     A
O380   C444    1.338   .     A
O381   Cu1195  1.960   .     S
O381   C434    1.385   .     A
O382   Cu1196  1.955   .     S
O382   C434    1.280   .     A
O383   Cu1195  1.929   1_565 S
O383   C423    1.290   .     A
O384   Cu1196  1.939   .     S
O384   C1163   1.271   1_545 A
N385   N386    1.448   .     A
N385   C398    1.502   .     S
N385   C399    1.216   .     A
N386   N387    1.392   .     A
N387   C401    1.134   .     A
N388   N389    1.320   .     A
N388   C411    1.281   .     A
N389   N390    1.353   .     A
N390   C412    1.282   .     A
N390   C414    1.368   .     S
N391   N392    1.366   .     A
N391   C431    1.411   .     S
N391   C435    1.374   .     A
N392   N393    1.394   .     A
N393   C438    1.152   .     A
C394   C395    1.586   .     S
C395   C396    1.282   .     A
C396   H397    0.941   .     S
C396   C398    1.346   .     A
C398   C146    1.451   1_545 A
C399   H400    0.941   1_545 S
C399   C401    1.465   .     A
H400   C399    0.941   1_565 S
C401   C402    1.435   .     S
C402   C403    1.429   1_545 A
C402   C409    1.427   .     A
C403   C402    1.429   1_565 A
C403   H404    0.940   .     S
C403   C405    1.234   .     A
C405   C776    1.604   .     A
C405   C660    1.516   .     S
C406   H407    0.939   .     S
C406   C408    1.299   .     A
C406   C627    1.604   .     A
C408   C411    1.357   .     S
C408   C631    1.473   .     A
C409   H410    0.941   .     S
C409   C778    1.473   .     A
C411   C412    1.571   .     A
C412   H413    0.940   .     S
C414   C415    1.528   .     A
C414   C421    1.312   .     A
C415   H416    0.938   .     S
C415   C417    1.439   .     A
C417   C418    1.298   .     A
C418   H419    0.939   .     S
C418   C420    1.405   .     A
C420   C421    1.457   .     A
C420   C423    1.443   .     S
C421   H422    0.939   .     S
C423   O1124   1.271   1_565 A
C424   C425    1.484   .     S
C425   C426    1.341   .     A
C425   C432    1.344   .     A
C426   H427    0.941   .     S
C426   C428    1.439   .     A
C428   C429    1.316   .     A
C428   C434    1.390   .     S
C429   H430    0.943   .     S
C429   C431    1.376   .     A
C431   C432    1.435   .     A
C432   H433    0.941   .     S
C435   H436    0.941   .     S
C435   C438    1.440   .     A
C438   C775    1.516   .     S
C439   H440    0.938   .     S
C439   C441    1.346   1_655 A
C441   C439    1.346   1_455 A
C441   C442    1.371   .     A
C441   C444    1.448   .     S
C442   H443    0.939   .     S
C442   C250    1.451   1_455 A
Cu445  Cu446   2.649   .     S
Cu445  O447    1.936   .     S
Cu445  O449    1.974   .     S
Cu445  O451    1.863   .     S
Cu445  O453    1.910   .     S
Cu446  O448    1.951   .     S
Cu446  O450    1.959   .     S
Cu446  O452    1.932   .     S
Cu446  O454    1.971   .     S
O447   C468    1.180   .     A
O448   C468    1.303   .     A
O449   C498    1.220   .     A
O450   C498    1.342   .     A
O451   C511    1.367   .     A
O452   C511    1.325   .     A
O453   C518    1.285   .     A
O454   C518    1.338   .     A
O455   Cu1197  1.960   .     S
O455   C508    1.385   .     A
O456   Cu1198  1.955   .     S
O456   C508    1.280   .     A
O457   Cu1197  1.929   .     S
O457   C497    1.290   .     A
O458   Cu1198  1.939   1_556 S
O458   C941    1.271   .     A
N459   N460    1.448   .     A
N459   C472    1.502   .     S
N459   C473    1.216   .     A
N460   N461    1.392   .     A
N461   C475    1.134   .     A
N462   N463    1.320   .     A
N462   C485    1.281   .     A
N463   N464    1.353   .     A
N464   C486    1.282   .     A
N464   C488    1.368   .     S
N465   N466    1.366   .     A
N465   C505    1.411   .     S
N465   C509    1.374   .     A
N466   N467    1.394   .     A
N467   C512    1.152   .     A
C468   C469    1.586   .     S
C469   C470    1.282   .     A
C470   H471    0.941   .     S
C470   C472    1.346   .     A
C473   H474    0.941   .     S
C473   C475    1.465   .     A
C475   C476    1.435   .     S
C476   C477    1.429   .     A
C476   C483    1.427   .     A
C477   H478    0.940   .     S
C477   C479    1.234   .     A
C479   C702    1.604   .     A
C479   C882    1.516   .     S
C480   H481    0.939   .     S
C480   C482    1.299   1_655 A
C480   C849    1.604   .     A
C482   C480    1.299   1_455 A
C482   C485    1.357   .     S
C482   C853    1.473   .     A
C483   H484    0.941   .     S
C483   C704    1.473   .     A
C485   C486    1.571   .     A
C486   H487    0.940   .     S
C488   C489    1.528   .     A
C488   C495    1.312   .     A
C489   H490    0.938   .     S
C489   C491    1.439   .     A
C491   C492    1.298   .     A
C492   H493    0.939   .     S
C492   C494    1.405   .     A
C494   C495    1.457   .     A
C494   C497    1.443   .     S
C495   H496    0.939   .     S
C497   O902    1.271   .     A
C498   C499    1.484   .     S
C499   C500    1.341   .     A
C499   C506    1.344   .     A
C500   H501    0.941   .     S
C500   C502    1.439   .     A
C502   C503    1.316   .     A
C502   C508    1.390   .     S
C503   H504    0.943   .     S
C503   C505    1.376   .     A
C505   C506    1.435   .     A
C506   H507    0.941   .     S
C509   H510    0.941   .     S
C509   C512    1.440   .     A
C512   C701    1.516   .     S
C513   H514    0.938   .     S
C513   C515    1.346   .     A
C515   C516    1.371   .     A
C515   C518    1.448   .     S
C516   H517    0.939   .     S
Cu519  Cu520   2.649   .     S
Cu519  O521    1.936   .     S
Cu519  O523    1.974   .     S
Cu519  O525    1.863   .     S
Cu519  O527    1.910   .     S
Cu520  O522    1.951   .     S
Cu520  O524    1.959   .     S
Cu520  O526    1.932   .     S
Cu520  O528    1.971   .     S
O521   C542    1.180   .     A
O522   C542    1.303   .     A
O523   C572    1.220   .     A
O524   C572    1.342   .     A
O525   C585    1.367   .     A
O526   C585    1.325   .     A
O527   C592    1.285   .     A
O528   C592    1.338   .     A
O529   Cu1199  1.960   .     S
O529   C582    1.385   .     A
O530   Cu1200  1.955   .     S
O530   C582    1.280   .     A
O531   Cu1199  1.929   1_545 S
O531   C571    1.290   .     A
O532   Cu1200  1.939   .     S
O532   C1015   1.271   1_565 A
N533   N534    1.448   .     A
N533   C546    1.502   .     S
N533   C547    1.216   .     A
N534   N535    1.392   .     A
N535   C549    1.134   .     A
N536   N537    1.320   .     A
N536   C559    1.281   .     A
N537   N538    1.353   .     A
N538   C560    1.282   .     A
N538   C562    1.368   .     S
N539   N540    1.366   .     A
N539   C579    1.411   .     S
N539   C583    1.374   .     A
N540   N541    1.394   .     A
N541   C586    1.152   .     A
C542   C543    1.586   .     S
C543   C544    1.282   .     A
C544   H545    0.941   .     S
C544   C546    1.346   .     A
C546   C294    1.451   1_565 A
C547   H548    0.941   1_565 S
C547   C549    1.465   .     A
H548   C547    0.941   1_545 S
C549   C550    1.435   .     S
C550   C551    1.429   1_565 A
C550   C557    1.427   .     A
C551   C550    1.429   1_545 A
C551   H552    0.940   .     S
C551   C553    1.234   .     A
C553   C628    1.604   .     A
C553   C808    1.516   .     S
C554   H555    0.939   .     S
C554   C556    1.299   .     A
C554   C775    1.604   .     A
C556   C559    1.357   .     S
C556   C779    1.473   .     A
C557   H558    0.941   .     S
C557   C630    1.473   .     A
C559   C560    1.571   .     A
C560   H561    0.940   .     S
C562   C563    1.528   .     A
C562   C569    1.312   .     A
C563   H564    0.938   .     S
C563   C565    1.439   .     A
C565   C566    1.298   .     A
C566   H567    0.939   .     S
C566   C568    1.405   .     A
C568   C569    1.457   .     A
C568   C571    1.443   .     S
C569   H570    0.939   .     S
C571   O976    1.271   1_545 A
C572   C573    1.484   .     S
C573   C574    1.341   .     A
C573   C580    1.344   .     A
C574   H575    0.941   .     S
C574   C576    1.439   .     A
C576   C577    1.316   .     A
C576   C582    1.390   .     S
C577   H578    0.943   .     S
C577   C579    1.376   .     A
C579   C580    1.435   .     A
C580   H581    0.941   .     S
C583   H584    0.941   .     S
C583   C586    1.440   .     A
C586   C627    1.516   .     S
C587   H588    0.938   .     S
C587   C589    1.346   1_455 A
C589   C587    1.346   1_655 A
C589   C590    1.371   .     A
C589   C592    1.448   .     S
C590   H591    0.939   .     S
C590   C102    1.451   1_655 A
Cu593  Cu594   2.649   .     S
Cu593  O595    1.936   .     S
Cu593  O597    1.974   .     S
Cu593  O599    1.863   .     S
Cu593  O601    1.910   .     S
Cu594  O596    1.951   .     S
Cu594  O598    1.959   .     S
Cu594  O600    1.932   .     S
Cu594  O602    1.971   .     S
O595   C616    1.180   .     A
O596   C616    1.303   .     A
O597   C646    1.220   .     A
O598   C646    1.342   .     A
O599   C659    1.367   .     A
O600   C659    1.325   .     A
O601   C666    1.285   .     A
O602   C666    1.338   .     A
O603   Cu1189  1.960   1_556 S
O603   C656    1.385   .     A
O604   Cu1190  1.955   1_556 S
O604   C656    1.280   .     A
O605   Cu1189  1.929   1_556 S
O605   C645    1.290   .     A
O606   Cu1190  1.939   .     S
N607   N608    1.448   .     A
N607   C620    1.502   .     S
N607   C621    1.216   .     A
N608   N609    1.392   .     A
N609   C623    1.134   .     A
N610   N611    1.320   .     A
N610   C633    1.281   .     A
N611   N612    1.353   .     A
N612   C634    1.282   .     A
N612   C636    1.368   .     S
N613   N614    1.366   .     A
N613   C653    1.411   .     S
N613   C657    1.374   .     A
N614   N615    1.394   .     A
N615   C660    1.152   .     A
C616   C617    1.586   .     S
C617   C618    1.282   .     A
C617   C1105   1.433   .     A
C618   H619    0.941   .     S
C618   C620    1.346   .     A
C620   C1108   1.451   .     A
C621   H622    0.941   .     S
C621   C623    1.465   .     A
C623   C624    1.435   .     S
C624   C625    1.429   .     A
C624   C631    1.427   .     A
C625   H626    0.940   .     S
C625   C627    1.234   .     A
C628   H629    0.939   .     S
C628   C630    1.299   1_545 A
C630   C628    1.299   1_565 A
C630   C633    1.357   .     S
C631   H632    0.941   .     S
C633   C634    1.571   .     A
C634   H635    0.940   .     S
C636   C637    1.528   .     A
C636   C643    1.312   .     A
C637   H638    0.938   .     S
C637   C639    1.439   .     A
C639   C640    1.298   .     A
C639   C1103   1.358   .     S
C640   H641    0.939   .     S
C640   C642    1.405   .     A
C642   C643    1.457   .     A
C642   C645    1.443   .     S
C643   H644    0.939   .     S
C646   C647    1.484   .     S
C647   C648    1.341   .     A
C647   C654    1.344   .     A
C648   H649    0.941   .     S
C648   C650    1.439   .     A
C650   C651    1.316   .     A
C650   C656    1.390   .     S
C651   H652    0.943   .     S
C651   C653    1.376   .     A
C653   C654    1.435   .     A
C654   H655    0.941   .     S
C657   H658    0.941   .     S
C657   C660    1.440   .     A
C659   C935    1.358   .     S
C661   H662    0.938   .     S
C661   C663    1.346   .     A
C661   C913    1.433   .     A
C663   C664    1.371   .     A
C663   C666    1.448   .     S
C664   H665    0.939   .     S
C664   C916    1.451   .     A
Cu667  Cu668   2.649   .     S
Cu667  O669    1.936   .     S
Cu667  O671    1.974   .     S
Cu667  O673    1.863   .     S
Cu667  O675    1.910   .     S
Cu668  O670    1.951   .     S
Cu668  O672    1.959   .     S
Cu668  O674    1.932   .     S
Cu668  O676    1.971   .     S
O669   C690    1.180   .     A
O670   C690    1.303   .     A
O671   C720    1.220   .     A
O672   C720    1.342   .     A
O673   C733    1.367   .     A
O674   C733    1.325   .     A
O675   C740    1.285   .     A
O676   C740    1.338   .     A
O677   Cu1191  1.960   .     S
O677   C730    1.385   .     A
O678   Cu1192  1.955   .     S
O678   C730    1.280   .     A
O679   Cu1191  1.929   1_455 S
O679   C719    1.290   .     A
O680   Cu1192  1.939   .     S
O680   C275    1.271   1_655 A
N681   N682    1.448   .     A
N681   C694    1.502   .     S
N681   C695    1.216   .     A
N682   N683    1.392   .     A
N683   C697    1.134   .     A
N684   N685    1.320   .     A
N684   C707    1.281   .     A
N685   N686    1.353   .     A
N686   C708    1.282   .     A
N686   C710    1.368   .     S
N687   N688    1.366   .     A
N687   C727    1.411   .     S
N687   C731    1.374   .     A
N688   N689    1.394   .     A
N689   C734    1.152   .     A
C690   C691    1.586   .     S
C691   C692    1.282   .     A
C691   C1179   1.433   .     A
C692   H693    0.941   .     S
C692   C694    1.346   .     A
C694   C1182   1.451   1_655 A
C695   H696    0.941   1_655 S
C695   C697    1.465   .     A
H696   C695    0.941   1_455 S
C697   C698    1.435   .     S
C698   C699    1.429   1_655 A
C698   C705    1.427   .     A
C699   C698    1.429   1_455 A
C699   H700    0.940   .     S
C699   C701    1.234   .     A
C702   H703    0.939   .     S
C702   C704    1.299   .     A
C704   C707    1.357   .     S
C705   H706    0.941   .     S
C707   C708    1.571   .     A
C708   H709    0.940   .     S
C710   C711    1.528   .     A
C710   C717    1.312   .     A
C711   H712    0.938   .     S
C711   C713    1.439   .     A
C713   C714    1.298   .     A
C713   C1177   1.358   .     S
C714   H715    0.939   .     S
C714   C716    1.405   .     A
C716   C717    1.457   .     A
C716   C719    1.443   .     S
C717   H718    0.939   .     S
C719   O236    1.271   1_455 A
C720   C721    1.484   .     S
C721   C722    1.341   .     A
C721   C728    1.344   .     A
C722   H723    0.941   .     S
C722   C724    1.439   .     A
C724   C725    1.316   .     A
C724   C730    1.390   .     S
C725   H726    0.943   .     S
C725   C727    1.376   .     A
C727   C728    1.435   .     A
C728   H729    0.941   .     S
C731   H732    0.941   .     S
C731   C734    1.440   .     A
C733   C1009   1.358   .     S
C735   H736    0.938   .     S
C735   C737    1.346   1_565 A
C735   C987    1.433   .     A
C737   C735    1.346   1_545 A
C737   C738    1.371   .     A
C737   C740    1.448   .     S
C738   H739    0.939   .     S
C738   C990    1.451   1_545 A
Cu741  Cu742   2.649   .     S
Cu741  O743    1.936   .     S
Cu741  O745    1.974   .     S
Cu741  O747    1.863   .     S
Cu741  O749    1.910   .     S
Cu742  O744    1.951   .     S
Cu742  O746    1.959   .     S
Cu742  O748    1.932   .     S
Cu742  O750    1.971   .     S
O743   C764    1.180   .     A
O744   C764    1.303   .     A
O745   C794    1.220   .     A
O746   C794    1.342   .     A
O747   C807    1.367   .     A
O748   C807    1.325   .     A
O749   C814    1.285   .     A
O750   C814    1.338   .     A
O751   Cu1185  1.960   1_556 S
O751   C804    1.385   .     A
O752   Cu1186  1.955   1_556 S
O752   C804    1.280   .     A
O753   Cu1185  1.929   1_556 S
O753   C793    1.290   .     A
O754   Cu1186  1.939   .     S
N755   N756    1.448   .     A
N755   C768    1.502   .     S
N755   C769    1.216   .     A
N756   N757    1.392   .     A
N757   C771    1.134   .     A
N758   N759    1.320   .     A
N758   C781    1.281   .     A
N759   N760    1.353   .     A
N760   C782    1.282   .     A
N760   C784    1.368   .     S
N761   N762    1.366   .     A
N761   C801    1.411   .     S
N761   C805    1.374   .     A
N762   N763    1.394   .     A
N763   C808    1.152   .     A
C764   C765    1.586   .     S
C765   C766    1.282   .     A
C765   C957    1.433   .     A
C766   H767    0.941   .     S
C766   C768    1.346   .     A
C768   C960    1.451   .     A
C769   H770    0.941   .     S
C769   C771    1.465   .     A
C771   C772    1.435   .     S
C772   C773    1.429   .     A
C772   C779    1.427   .     A
C773   H774    0.940   .     S
C773   C775    1.234   .     A
C776   H777    0.939   .     S
C776   C778    1.299   1_565 A
C778   C776    1.299   1_545 A
C778   C781    1.357   .     S
C779   H780    0.941   .     S
C781   C782    1.571   .     A
C782   H783    0.940   .     S
C784   C785    1.528   .     A
C784   C791    1.312   .     A
C785   H786    0.938   .     S
C785   C787    1.439   .     A
C787   C788    1.298   .     A
C787   C955    1.358   .     S
C788   H789    0.939   .     S
C788   C790    1.405   .     A
C790   C791    1.457   .     A
C790   C793    1.443   .     S
C791   H792    0.939   .     S
C794   C795    1.484   .     S
C795   C796    1.341   .     A
C795   C802    1.344   .     A
C796   H797    0.941   .     S
C796   C798    1.439   .     A
C798   C799    1.316   .     A
C798   C804    1.390   .     S
C799   H800    0.943   .     S
C799   C801    1.376   .     A
C801   C802    1.435   .     A
C802   H803    0.941   .     S
C805   H806    0.941   .     S
C805   C808    1.440   .     A
C807   C1083   1.358   .     S
C809   H810    0.938   .     S
C809   C811    1.346   .     A
C809   C1061   1.433   .     A
C811   C812    1.371   .     A
C811   C814    1.448   .     S
C812   H813    0.939   .     S
C812   C1064   1.451   .     A
Cu815  Cu816   2.649   .     S
Cu815  O817    1.936   .     S
Cu815  O819    1.974   .     S
Cu815  O821    1.863   .     S
Cu815  O823    1.910   .     S
Cu816  O818    1.951   .     S
Cu816  O820    1.959   .     S
Cu816  O822    1.932   .     S
Cu816  O824    1.971   .     S
O817   C838    1.180   .     A
O818   C838    1.303   .     A
O819   C868    1.220   .     A
O820   C868    1.342   .     A
O821   C881    1.367   .     A
O822   C881    1.325   .     A
O823   C888    1.285   .     A
O824   C888    1.338   .     A
O825   Cu1187  1.960   .     S
O825   C878    1.385   .     A
O826   Cu1188  1.955   .     S
O826   C878    1.280   .     A
O827   Cu1187  1.929   1_655 S
O827   C867    1.290   .     A
O828   Cu1188  1.939   .     S
O828   C127    1.271   1_455 A
N829   N830    1.448   .     A
N829   C842    1.502   .     S
N829   C843    1.216   .     A
N830   N831    1.392   .     A
N831   C845    1.134   .     A
N832   N833    1.320   .     A
N832   C855    1.281   .     A
N833   N834    1.353   .     A
N834   C856    1.282   .     A
N834   C858    1.368   .     S
N835   N836    1.366   .     A
N835   C875    1.411   .     S
N835   C879    1.374   .     A
N836   N837    1.394   .     A
N837   C882    1.152   .     A
C838   C839    1.586   .     S
C839   C840    1.282   .     A
C839   C1031   1.433   .     A
C840   H841    0.941   .     S
C840   C842    1.346   .     A
C842   C1034   1.451   1_455 A
C843   H844    0.941   1_455 S
C843   C845    1.465   .     A
H844   C843    0.941   1_655 S
C845   C846    1.435   .     S
C846   C847    1.429   1_455 A
C846   C853    1.427   .     A
C847   C846    1.429   1_655 A
C847   H848    0.940   .     S
C847   C849    1.234   .     A
C850   H851    0.939   .     S
C850   C852    1.299   .     A
C852   C855    1.357   .     S
C853   H854    0.941   .     S
C855   C856    1.571   .     A
C856   H857    0.940   .     S
C858   C859    1.528   .     A
C858   C865    1.312   .     A
C859   H860    0.938   .     S
C859   C861    1.439   .     A
C861   C862    1.298   .     A
C861   C1029   1.358   .     S
C862   H863    0.939   .     S
C862   C864    1.405   .     A
C864   C865    1.457   .     A
C864   C867    1.443   .     S
C865   H866    0.939   .     S
C867   O88     1.271   1_655 A
C868   C869    1.484   .     S
C869   C870    1.341   .     A
C869   C876    1.344   .     A
C870   H871    0.941   .     S
C870   C872    1.439   .     A
C872   C873    1.316   .     A
C872   C878    1.390   .     S
C873   H874    0.943   .     S
C873   C875    1.376   .     A
C875   C876    1.435   .     A
C876   H877    0.941   .     S
C879   H880    0.941   .     S
C879   C882    1.440   .     A
C881   C1157   1.358   .     S
C883   H884    0.938   .     S
C883   C885    1.346   1_545 A
C883   C1135   1.433   .     A
C885   C883    1.346   1_565 A
C885   C886    1.371   .     A
C885   C888    1.448   .     S
C886   H887    0.939   .     S
C886   C1138   1.451   1_565 A
Cu889  Cu890   2.649   .     S
Cu889  O891    1.936   .     S
Cu889  O893    1.974   .     S
Cu889  O895    1.863   .     S
Cu889  O897    1.910   .     S
Cu890  O892    1.951   .     S
Cu890  O894    1.959   .     S
Cu890  O896    1.932   .     S
Cu890  O898    1.971   .     S
O891   C912    1.180   .     A
O892   C912    1.303   .     A
O893   C942    1.220   .     A
O894   C942    1.342   .     A
O895   C955    1.367   .     A
O896   C955    1.325   .     A
O897   C962    1.285   .     A
O898   C962    1.338   .     A
O899   Cu1197  1.960   1_556 S
O899   C952    1.385   .     A
O900   Cu1198  1.955   1_556 S
O900   C952    1.280   .     A
O901   Cu1197  1.929   1_556 S
O901   C941    1.290   .     A
O902   Cu1198  1.939   .     S
N903   N904    1.448   .     A
N903   C916    1.502   .     S
N903   C917    1.216   .     A
N904   N905    1.392   .     A
N905   C919    1.134   .     A
N906   N907    1.320   .     A
N906   C929    1.281   .     A
N907   N908    1.353   .     A
N908   C930    1.282   .     A
N908   C932    1.368   .     S
N909   N910    1.366   .     A
N909   C949    1.411   .     S
N909   C953    1.374   .     A
N910   N911    1.394   .     A
N911   C956    1.152   .     A
C912   C913    1.586   .     S
C913   C914    1.282   .     A
C914   H915    0.941   .     S
C914   C916    1.346   .     A
C917   H918    0.941   .     S
C917   C919    1.465   .     A
C919   C920    1.435   .     S
C920   C921    1.429   .     A
C920   C927    1.427   .     A
C921   H922    0.940   .     S
C921   C923    1.234   .     A
C924   H925    0.939   .     S
C924   C926    1.299   1_655 A
C926   C924    1.299   1_455 A
C926   C929    1.357   .     S
C927   H928    0.941   .     S
C929   C930    1.571   .     A
C930   H931    0.940   .     S
C932   C933    1.528   .     A
C932   C939    1.312   .     A
C933   H934    0.938   .     S
C933   C935    1.439   .     A
C935   C936    1.298   .     A
C936   H937    0.939   .     S
C936   C938    1.405   .     A
C938   C939    1.457   .     A
C938   C941    1.443   .     S
C939   H940    0.939   .     S
C942   C943    1.484   .     S
C943   C944    1.341   .     A
C943   C950    1.344   .     A
C944   H945    0.941   .     S
C944   C946    1.439   .     A
C946   C947    1.316   .     A
C946   C952    1.390   .     S
C947   H948    0.943   .     S
C947   C949    1.376   .     A
C949   C950    1.435   .     A
C950   H951    0.941   .     S
C953   H954    0.941   .     S
C953   C956    1.440   .     A
C957   H958    0.938   .     S
C957   C959    1.346   .     A
C959   C960    1.371   .     A
C959   C962    1.448   .     S
C960   H961    0.939   .     S
Cu963  Cu964   2.649   .     S
Cu963  O965    1.936   .     S
Cu963  O967    1.974   .     S
Cu963  O969    1.863   .     S
Cu963  O971    1.910   .     S
Cu964  O966    1.951   .     S
Cu964  O968    1.959   .     S
Cu964  O970    1.932   .     S
Cu964  O972    1.971   .     S
O965   C986    1.180   .     A
O966   C986    1.303   .     A
O967   C1016   1.220   .     A
O968   C1016   1.342   .     A
O969   C1029   1.367   .     A
O970   C1029   1.325   .     A
O971   C1036   1.285   .     A
O972   C1036   1.338   .     A
O973   Cu1199  1.960   .     S
O973   C1026   1.385   .     A
O974   Cu1200  1.955   .     S
O974   C1026   1.280   .     A
O975   Cu1199  1.929   1_545 S
O975   C1015   1.290   .     A
O976   Cu1200  1.939   .     S
O976   C571    1.271   1_565 A
N977   N978    1.448   .     A
N977   C990    1.502   .     S
N977   C991    1.216   .     A
N978   N979    1.392   .     A
N979   C993    1.134   .     A
N980   N981    1.320   .     A
N980   C1003   1.281   .     A
N981   N982    1.353   .     A
N982   C1004   1.282   .     A
N982   C1006   1.368   .     S
N983   N984    1.366   .     A
N983   C1023   1.411   .     S
N983   C1027   1.374   .     A
N984   N985    1.394   .     A
N985   C1030   1.152   .     A
C986   C987    1.586   .     S
C987   C988    1.282   .     A
C988   H989    0.941   .     S
C988   C990    1.346   .     A
C990   C738    1.451   1_565 A
C991   H992    0.941   1_565 S
C991   C993    1.465   .     A
H992   C991    0.941   1_545 S
C993   C994    1.435   .     S
C994   C995    1.429   1_565 A
C994   C1001   1.427   .     A
C995   C994    1.429   1_545 A
C995   H996    0.940   .     S
C995   C997    1.234   .     A
C998   H999    0.939   .     S
C998   C1000   1.299   .     A
C1000  C1003   1.357   .     S
C1001  H1002   0.941   .     S
C1003  C1004   1.571   .     A
C1004  H1005   0.940   .     S
C1006  C1007   1.528   .     A
C1006  C1013   1.312   .     A
C1007  H1008   0.938   .     S
C1007  C1009   1.439   .     A
C1009  C1010   1.298   .     A
C1010  H1011   0.939   .     S
C1010  C1012   1.405   .     A
C1012  C1013   1.457   .     A
C1012  C1015   1.443   .     S
C1013  H1014   0.939   .     S
C1015  O532    1.271   1_545 A
C1016  C1017   1.484   .     S
C1017  C1018   1.341   .     A
C1017  C1024   1.344   .     A
C1018  H1019   0.941   .     S
C1018  C1020   1.439   .     A
C1020  C1021   1.316   .     A
C1020  C1026   1.390   .     S
C1021  H1022   0.943   .     S
C1021  C1023   1.376   .     A
C1023  C1024   1.435   .     A
C1024  H1025   0.941   .     S
C1027  H1028   0.941   .     S
C1027  C1030   1.440   .     A
C1031  H1032   0.938   .     S
C1031  C1033   1.346   1_455 A
C1033  C1031   1.346   1_655 A
C1033  C1034   1.371   .     A
C1033  C1036   1.448   .     S
C1034  H1035   0.939   .     S
C1034  C842    1.451   1_655 A
Cu1037 Cu1038  2.649   .     S
Cu1037 O1039   1.936   .     S
Cu1037 O1041   1.974   .     S
Cu1037 O1043   1.863   .     S
Cu1037 O1045   1.910   .     S
Cu1038 O1040   1.951   .     S
Cu1038 O1042   1.959   .     S
Cu1038 O1044   1.932   .     S
Cu1038 O1046   1.971   .     S
O1039  C1060   1.180   .     A
O1040  C1060   1.303   .     A
O1041  C1090   1.220   .     A
O1042  C1090   1.342   .     A
O1043  C1103   1.367   .     A
O1044  C1103   1.325   .     A
O1045  C1110   1.285   .     A
O1046  C1110   1.338   .     A
O1047  Cu1193  1.960   1_556 S
O1047  C1100   1.385   .     A
O1048  Cu1194  1.955   1_556 S
O1048  C1100   1.280   .     A
O1049  Cu1193  1.929   1_556 S
O1049  C1089   1.290   .     A
O1050  Cu1194  1.939   .     S
N1051  N1052   1.448   .     A
N1051  C1064   1.502   .     S
N1051  C1065   1.216   .     A
N1052  N1053   1.392   .     A
N1053  C1067   1.134   .     A
N1054  N1055   1.320   .     A
N1054  C1077   1.281   .     A
N1055  N1056   1.353   .     A
N1056  C1078   1.282   .     A
N1056  C1080   1.368   .     S
N1057  N1058   1.366   .     A
N1057  C1097   1.411   .     S
N1057  C1101   1.374   .     A
N1058  N1059   1.394   .     A
N1059  C1104   1.152   .     A
C1060  C1061   1.586   .     S
C1061  C1062   1.282   .     A
C1062  H1063   0.941   .     S
C1062  C1064   1.346   .     A
C1065  H1066   0.941   .     S
C1065  C1067   1.465   .     A
C1067  C1068   1.435   .     S
C1068  C1069   1.429   .     A
C1068  C1075   1.427   .     A
C1069  H1070   0.940   .     S
C1069  C1071   1.234   .     A
C1072  H1073   0.939   .     S
C1072  C1074   1.299   1_455 A
C1074  C1072   1.299   1_655 A
C1074  C1077   1.357   .     S
C1075  H1076   0.941   .     S
C1077  C1078   1.571   .     A
C1078  H1079   0.940   .     S
C1080  C1081   1.528   .     A
C1080  C1087   1.312   .     A
C1081  H1082   0.938   .     S
C1081  C1083   1.439   .     A
C1083  C1084   1.298   .     A
C1084  H1085   0.939   .     S
C1084  C1086   1.405   .     A
C1086  C1087   1.457   .     A
C1086  C1089   1.443   .     S
C1087  H1088   0.939   .     S
C1090  C1091   1.484   .     S
C1091  C1092   1.341   .     A
C1091  C1098   1.344   .     A
C1092  H1093   0.941   .     S
C1092  C1094   1.439   .     A
C1094  C1095   1.316   .     A
C1094  C1100   1.390   .     S
C1095  H1096   0.943   .     S
C1095  C1097   1.376   .     A
C1097  C1098   1.435   .     A
C1098  H1099   0.941   .     S
C1101  H1102   0.941   .     S
C1101  C1104   1.440   .     A
C1105  H1106   0.938   .     S
C1105  C1107   1.346   .     A
C1107  C1108   1.371   .     A
C1107  C1110   1.448   .     S
C1108  H1109   0.939   .     S
Cu1111 Cu1112  2.649   .     S
Cu1111 O1113   1.936   .     S
Cu1111 O1115   1.974   .     S
Cu1111 O1117   1.863   .     S
Cu1111 O1119   1.910   .     S
Cu1112 O1114   1.951   .     S
Cu1112 O1116   1.959   .     S
Cu1112 O1118   1.932   .     S
Cu1112 O1120   1.971   .     S
O1113  C1134   1.180   .     A
O1114  C1134   1.303   .     A
O1115  C1164   1.220   .     A
O1116  C1164   1.342   .     A
O1117  C1177   1.367   .     A
O1118  C1177   1.325   .     A
O1119  C1184   1.285   .     A
O1120  C1184   1.338   .     A
O1121  Cu1195  1.960   .     S
O1121  C1174   1.385   .     A
O1122  Cu1196  1.955   .     S
O1122  C1174   1.280   .     A
O1123  Cu1195  1.929   1_565 S
O1123  C1163   1.290   .     A
O1124  Cu1196  1.939   .     S
O1124  C423    1.271   1_545 A
N1125  N1126   1.448   .     A
N1125  C1138   1.502   .     S
N1125  C1139   1.216   .     A
N1126  N1127   1.392   .     A
N1127  C1141   1.134   .     A
N1128  N1129   1.320   .     A
N1128  C1151   1.281   .     A
N1129  N1130   1.353   .     A
N1130  C1152   1.282   .     A
N1130  C1154   1.368   .     S
N1131  N1132   1.366   .     A
N1131  C1171   1.411   .     S
N1131  C1175   1.374   .     A
N1132  N1133   1.394   .     A
N1133  C1178   1.152   .     A
C1134  C1135   1.586   .     S
C1135  C1136   1.282   .     A
C1136  H1137   0.941   .     S
C1136  C1138   1.346   .     A
C1138  C886    1.451   1_545 A
C1139  H1140   0.941   1_545 S
C1139  C1141   1.465   .     A
H1140  C1139   0.941   1_565 S
C1141  C1142   1.435   .     S
C1142  C1143   1.429   1_545 A
C1142  C1149   1.427   .     A
C1143  C1142   1.429   1_565 A
C1143  H1144   0.940   .     S
C1143  C1145   1.234   .     A
C1146  H1147   0.939   .     S
C1146  C1148   1.299   .     A
C1148  C1151   1.357   .     S
C1149  H1150   0.941   .     S
C1151  C1152   1.571   .     A
C1152  H1153   0.940   .     S
C1154  C1155   1.528   .     A
C1154  C1161   1.312   .     A
C1155  H1156   0.938   .     S
C1155  C1157   1.439   .     A
C1157  C1158   1.298   .     A
C1158  H1159   0.939   .     S
C1158  C1160   1.405   .     A
C1160  C1161   1.457   .     A
C1160  C1163   1.443   .     S
C1161  H1162   0.939   .     S
C1163  O384    1.271   1_565 A
C1164  C1165   1.484   .     S
C1165  C1166   1.341   .     A
C1165  C1172   1.344   .     A
C1166  H1167   0.941   .     S
C1166  C1168   1.439   .     A
C1168  C1169   1.316   .     A
C1168  C1174   1.390   .     S
C1169  H1170   0.943   .     S
C1169  C1171   1.376   .     A
C1171  C1172   1.435   .     A
C1172  H1173   0.941   .     S
C1175  H1176   0.941   .     S
C1175  C1178   1.440   .     A
C1179  H1180   0.938   .     S
C1179  C1181   1.346   1_655 A
C1181  C1179   1.346   1_455 A
C1181  C1182   1.371   .     A
C1181  C1184   1.448   .     S
C1182  H1183   0.939   .     S
C1182  C694    1.451   1_455 A
Cu1185 Cu1186  2.656   .     S
Cu1185 O751    1.960   1_554 S
Cu1185 O753    1.929   1_554 S
Cu1186 O752    1.955   1_554 S
Cu1186 O14     1.939   1_554 S
Cu1187 Cu1188  2.656   .     S
Cu1187 O87     1.929   1_455 S
Cu1187 O827    1.929   1_455 S
Cu1189 Cu1190  2.656   .     S
Cu1189 O603    1.960   1_554 S
Cu1189 O605    1.929   1_554 S
Cu1190 O604    1.955   1_554 S
Cu1190 O162    1.939   1_554 S
Cu1191 Cu1192  2.656   .     S
Cu1191 O235    1.929   1_655 S
Cu1191 O679    1.929   1_655 S
Cu1193 Cu1194  2.656   .     S
Cu1193 O1047   1.960   1_554 S
Cu1193 O1049   1.929   1_554 S
Cu1194 O1048   1.955   1_554 S
Cu1194 O310    1.939   1_554 S
Cu1195 Cu1196  2.656   .     S
Cu1195 O383    1.929   1_545 S
Cu1195 O1123   1.929   1_545 S
Cu1197 Cu1198  2.656   .     S
Cu1197 O899    1.960   1_554 S
Cu1197 O901    1.929   1_554 S
Cu1198 O900    1.955   1_554 S
Cu1198 O458    1.939   1_554 S
Cu1199 Cu1200  2.656   .     S
Cu1199 O531    1.929   1_565 S
Cu1199 O975    1.929   1_565 S
