data_functionalizedCrystal
_audit_creation_method	'EQeq! by Chris Wilmer'
_symmetry_space_group_name_H-M	'P1'
_symmetry_Int_Tables_number	1
_symmetry_cell_setting	triclinic
loop_
_symmetry_equiv_pos_as_xyz
  x,y,z
_cell_length_a	31.3109
_cell_length_b	31.3109
_cell_length_c	44.807
_cell_angle_alpha	90
_cell_angle_beta	90
_cell_angle_gamma	90
loop_
_atom_site_label
_atom_site_type_symbol
_atom_site_fract_x
_atom_site_fract_y
_atom_site_fract_z
_atom_site_charge
Cu	Cu	0.64495	0.39505	0.1272	0.915
Cu	Cu	0.69391	0.35868	0.16816	0.906
O 	O 	0.59874	0.3734	0.15158	-0.428
O 	O 	0.63928	0.3482	0.1878	-0.396
O 	O 	0.64814	0.33936	0.10668	-0.393
O 	O 	0.6871	0.30753	0.14342	-0.373
O 	O 	0.69668	0.41068	0.10981	-0.381
O 	O 	0.74009	0.3751	0.14197	-0.375
O 	O 	0.64956	0.4441	0.15235	-0.387
O 	O 	0.6942	0.41524	0.18747	-0.365
O 	O 	0.5836	0.25202	0.03033	-0.36
O 	O 	0.5925	0.179	0.0309	-0.381
O 	O 	0.49665	0.2377	0.03027	-0.396
O 	O 	0.50532	0.16577	0.97018	-0.388
N 	N 	0.5354	0.2744	0.259	-0.095
N 	N 	0.5762	0.2534	0.2631	-0.046
N 	N 	0.566	0.2422	0.2923	-0.088
N 	N 	0.3686	0.0485	0.0886	-0.075
N 	N 	0.3849	0.0831	0.0762	-0.042
N 	N 	0.3876	0.1121	0.0985	-0.099
N 	N 	0.6894	0.1514	0.116	-0.088
N 	N 	0.7209	0.1563	0.1368	-0.043
N 	N 	0.7282	0.1137	0.1443	-0.09
C 	C 	0.603	0.3548	0.1743	0.358
C 	C 	0.5639	0.3342	0.1916	-0.025
C 	C 	0.5689	0.316	0.217	-0.087
H 	H 	0.596	0.3142	0.226	0.093
C 	C 	0.5342	0.2994	0.2304	0.101
C 	C 	0.5079	0.2626	0.2763	0.018
H 	H 	0.4782	0.2668	0.2749	0.033
C 	C 	0.5315	0.2404	0.2999	0.064
C 	C 	0.5143	0.2237	0.3272	0.043
C 	C 	0.4696	0.218	0.3322	-0.105
H 	H 	0.4502	0.2252	0.317	0.08
C 	C 	0.4559	0.2037	0.356	0.048
C 	C 	0.3293	0.9873	0.1276	-0.097
H 	H 	0.3466	0.976	0.1124	0.078
C 	C 	0.3335	0.0275	0.1341	0.051
C 	C 	0.5431	0.1972	0.3435	-0.092
H 	H 	0.5726	0.1993	0.3398	0.078
C 	C 	0.3557	0.0535	0.1155	0.04
C 	C 	0.3632	0.1026	0.1205	0.021
H 	H 	0.3525	0.1203	0.1357	0.032
C 	C 	0.407	0.1493	0.09	0.098
C 	C 	0.3927	0.1881	0.1081	-0.045
H 	H 	0.3718	0.1856	0.123	0.069
C 	C 	0.4123	0.2286	0.1015	-0.089
C 	C 	0.4384	0.2293	0.079	0.033
H 	H 	0.4446	0.2566	0.0715	0.052
C 	C 	0.4588	0.1953	0.0643	-0.066
C 	C 	0.435	0.1558	0.0687	-0.07
H 	H 	0.44	0.1333	0.0553	0.088
C 	C 	0.4898	0.1999	0.0407	0.334
C 	C 	0.6611	0.3076	0.1196	0.315
C 	C 	0.6596	0.2651	0.105	-0.039
C 	C 	0.6359	0.2616	0.0802	-0.008
H 	H 	0.6245	0.2863	0.0713	0.066
C 	C 	0.6277	0.2205	0.067	-0.048
C 	C 	0.6471	0.1874	0.079	-0.071
H 	H 	0.6466	0.1614	0.0684	0.079
C 	C 	0.668	0.1884	0.106	0.097
C 	C 	0.6781	0.2303	0.1169	-0.066
H 	H 	0.6978	0.2335	0.1326	0.088
C 	C 	0.6025	0.2155	0.0417	0.288
C 	C 	0.6718	0.1112	0.1162	-0.018
H 	H 	0.6466	0.1006	0.1075	0.047
C 	C 	0.7373	0.3999	0.1181	0.306
C 	C 	0.704	0.0903	0.1339	0.076
C 	C 	0.6569	0.5228	0.179	-0.024
H 	H 	0.6377	0.5196	0.1631	0.069
C 	C 	0.6771	0.4889	0.1909	-0.037
C 	C 	0.6978	0.4916	0.2178	-0.072
H 	H 	0.7094	0.4676	0.2274	0.079
C 	C 	0.6726	0.4482	0.1759	0.297
Cu	Cu	0.14495	0.89505	0.6272	0.914
Cu	Cu	0.19391	0.85868	0.66816	0.905
O 	O 	0.09874	0.8734	0.65158	-0.429
O 	O 	0.13928	0.8482	0.6878	-0.397
O 	O 	0.14814	0.83936	0.60668	-0.393
O 	O 	0.1871	0.80753	0.64342	-0.373
O 	O 	0.19668	0.91068	0.60981	-0.381
O 	O 	0.24009	0.8751	0.64197	-0.375
O 	O 	0.14956	0.9441	0.65235	-0.387
O 	O 	0.1942	0.91524	0.68747	-0.365
O 	O 	0.0836	0.75202	0.53033	-0.359
O 	O 	0.0925	0.679	0.5309	-0.38
O 	O 	0.99665	0.7377	0.53027	-0.395
O 	O 	0.00532	0.66577	0.47018	-0.39
N 	N 	0.0354	0.7744	0.759	-0.095
N 	N 	0.0762	0.7534	0.7631	-0.046
N 	N 	0.066	0.7422	0.7923	-0.088
N 	N 	0.8686	0.5485	0.5886	-0.075
N 	N 	0.8849	0.5831	0.5762	-0.041
N 	N 	0.8876	0.6121	0.5985	-0.099
N 	N 	0.1894	0.6514	0.616	-0.088
N 	N 	0.2209	0.6563	0.6368	-0.043
N 	N 	0.2282	0.6137	0.6443	-0.09
C 	C 	0.103	0.8548	0.6743	0.358
C 	C 	0.0639	0.8342	0.6916	-0.025
C 	C 	0.0689	0.816	0.717	-0.087
H 	H 	0.096	0.8142	0.726	0.093
C 	C 	0.0342	0.7994	0.7304	0.101
C 	C 	0.0079	0.7626	0.7763	0.018
H 	H 	0.9782	0.7668	0.7749	0.033
C 	C 	0.0315	0.7404	0.7999	0.064
C 	C 	0.0143	0.7237	0.8272	0.043
C 	C 	0.9696	0.718	0.8322	-0.105
H 	H 	0.9502	0.7252	0.817	0.08
C 	C 	0.9559	0.7037	0.856	0.048
C 	C 	0.8293	0.4873	0.6276	-0.097
H 	H 	0.8466	0.476	0.6124	0.078
C 	C 	0.8335	0.5275	0.6341	0.051
C 	C 	0.0431	0.6972	0.8435	-0.092
H 	H 	0.0726	0.6993	0.8398	0.078
C 	C 	0.8557	0.5535	0.6155	0.04
C 	C 	0.8632	0.6026	0.6205	0.021
H 	H 	0.8525	0.6203	0.6357	0.032
C 	C 	0.907	0.6493	0.59	0.099
C 	C 	0.8927	0.6881	0.6081	-0.045
H 	H 	0.8718	0.6856	0.623	0.069
C 	C 	0.9123	0.7286	0.6015	-0.088
C 	C 	0.9384	0.7293	0.579	0.032
H 	H 	0.9446	0.7566	0.5715	0.052
C 	C 	0.9588	0.6953	0.5643	-0.066
C 	C 	0.935	0.6558	0.5687	-0.07
H 	H 	0.94	0.6333	0.5553	0.088
C 	C 	0.9898	0.6999	0.5407	0.334
C 	C 	0.1611	0.8076	0.6196	0.315
C 	C 	0.1596	0.7651	0.605	-0.039
C 	C 	0.1359	0.7616	0.5802	-0.008
H 	H 	0.1245	0.7863	0.5713	0.067
C 	C 	0.1277	0.7205	0.567	-0.048
C 	C 	0.1471	0.6874	0.579	-0.071
H 	H 	0.1466	0.6614	0.5684	0.08
C 	C 	0.168	0.6884	0.606	0.098
C 	C 	0.1781	0.7303	0.6169	-0.066
H 	H 	0.1978	0.7335	0.6326	0.088
C 	C 	0.1025	0.7155	0.5417	0.288
C 	C 	0.1718	0.6112	0.6162	-0.018
H 	H 	0.1466	0.6006	0.6075	0.047
C 	C 	0.2373	0.8999	0.6181	0.306
C 	C 	0.204	0.5903	0.6339	0.076
C 	C 	0.1569	0.0228	0.679	-0.024
H 	H 	0.1377	0.0196	0.6631	0.069
C 	C 	0.1771	0.9889	0.6909	-0.037
C 	C 	0.1978	0.9916	0.7178	-0.072
H 	H 	0.2094	0.9676	0.7274	0.079
C 	C 	0.1726	0.9482	0.6759	0.297
Cu	Cu	0.35505	0.60495	0.1272	0.914
Cu	Cu	0.30609	0.64132	0.16816	0.905
O 	O 	0.40126	0.6266	0.15158	-0.429
O 	O 	0.36072	0.6518	0.1878	-0.397
O 	O 	0.35186	0.66064	0.10668	-0.393
O 	O 	0.3129	0.69247	0.14342	-0.373
O 	O 	0.30332	0.58932	0.10981	-0.381
O 	O 	0.25991	0.6249	0.14197	-0.375
O 	O 	0.35044	0.5559	0.15235	-0.387
O 	O 	0.3058	0.58476	0.18747	-0.365
O 	O 	0.4164	0.74798	0.03033	-0.36
O 	O 	0.4075	0.821	0.0309	-0.381
O 	O 	0.50335	0.7623	0.03027	-0.396
O 	O 	0.49468	0.83423	0.97018	-0.388
N 	N 	0.4646	0.7256	0.259	-0.095
N 	N 	0.4238	0.7466	0.2631	-0.046
N 	N 	0.434	0.7578	0.2923	-0.088
N 	N 	0.6314	0.9515	0.0886	-0.075
N 	N 	0.6151	0.9169	0.0762	-0.042
N 	N 	0.6124	0.8879	0.0985	-0.099
N 	N 	0.3106	0.8486	0.116	-0.088
N 	N 	0.2791	0.8437	0.1368	-0.043
N 	N 	0.2718	0.8863	0.1443	-0.09
C 	C 	0.397	0.6452	0.1743	0.358
C 	C 	0.4361	0.6658	0.1916	-0.025
C 	C 	0.4311	0.684	0.217	-0.087
H 	H 	0.404	0.6858	0.226	0.093
C 	C 	0.4658	0.7006	0.2304	0.101
C 	C 	0.4921	0.7374	0.2763	0.018
H 	H 	0.5218	0.7332	0.2749	0.033
C 	C 	0.4685	0.7596	0.2999	0.064
C 	C 	0.4857	0.7763	0.3272	0.043
C 	C 	0.5304	0.782	0.3322	-0.105
H 	H 	0.5498	0.7748	0.317	0.08
C 	C 	0.5441	0.7963	0.356	0.048
C 	C 	0.6707	0.0127	0.1276	-0.097
H 	H 	0.6534	0.024	0.1124	0.078
C 	C 	0.6665	0.9725	0.1341	0.051
C 	C 	0.4569	0.8028	0.3435	-0.092
H 	H 	0.4274	0.8007	0.3398	0.078
C 	C 	0.6443	0.9465	0.1155	0.04
C 	C 	0.6368	0.8974	0.1205	0.021
H 	H 	0.6475	0.8797	0.1357	0.032
C 	C 	0.593	0.8507	0.09	0.098
C 	C 	0.6073	0.8119	0.1081	-0.045
H 	H 	0.6282	0.8144	0.123	0.069
C 	C 	0.5877	0.7714	0.1015	-0.089
C 	C 	0.5616	0.7707	0.079	0.033
H 	H 	0.5554	0.7434	0.0715	0.052
C 	C 	0.5412	0.8047	0.0643	-0.066
C 	C 	0.565	0.8442	0.0687	-0.07
H 	H 	0.56	0.8667	0.0553	0.088
C 	C 	0.5102	0.8001	0.0407	0.334
C 	C 	0.3389	0.6924	0.1196	0.315
C 	C 	0.3404	0.7349	0.105	-0.039
C 	C 	0.3641	0.7384	0.0802	-0.008
H 	H 	0.3755	0.7137	0.0713	0.066
C 	C 	0.3723	0.7795	0.067	-0.048
C 	C 	0.3529	0.8126	0.079	-0.071
H 	H 	0.3534	0.8386	0.0684	0.079
C 	C 	0.332	0.8116	0.106	0.097
C 	C 	0.3219	0.7697	0.1169	-0.066
H 	H 	0.3022	0.7665	0.1326	0.088
C 	C 	0.3975	0.7845	0.0417	0.288
C 	C 	0.3282	0.8888	0.1162	-0.018
H 	H 	0.3534	0.8994	0.1075	0.047
C 	C 	0.2627	0.6001	0.1181	0.306
C 	C 	0.296	0.9097	0.1339	0.076
C 	C 	0.3431	0.4772	0.179	-0.024
H 	H 	0.3623	0.4804	0.1631	0.069
C 	C 	0.3229	0.5111	0.1909	-0.037
C 	C 	0.3022	0.5084	0.2178	-0.072
H 	H 	0.2906	0.5324	0.2274	0.079
C 	C 	0.3274	0.5518	0.1759	0.297
Cu	Cu	0.85505	0.10495	0.6272	0.914
Cu	Cu	0.80609	0.14132	0.66816	0.905
O 	O 	0.90126	0.1266	0.65158	-0.429
O 	O 	0.86072	0.1518	0.6878	-0.397
O 	O 	0.85186	0.16064	0.60668	-0.393
O 	O 	0.8129	0.19247	0.64342	-0.373
O 	O 	0.80332	0.08932	0.60981	-0.381
O 	O 	0.75991	0.1249	0.64197	-0.375
O 	O 	0.85044	0.0559	0.65235	-0.387
O 	O 	0.8058	0.08476	0.68747	-0.365
O 	O 	0.9164	0.24798	0.53033	-0.359
O 	O 	0.9075	0.321	0.5309	-0.38
O 	O 	0.00335	0.2623	0.53027	-0.395
O 	O 	0.99468	0.33423	0.47018	-0.39
N 	N 	0.9646	0.2256	0.759	-0.095
N 	N 	0.9238	0.2466	0.7631	-0.046
N 	N 	0.934	0.2578	0.7923	-0.088
N 	N 	0.1314	0.4515	0.5886	-0.075
N 	N 	0.1151	0.4169	0.5762	-0.041
N 	N 	0.1124	0.3879	0.5985	-0.099
N 	N 	0.8106	0.3486	0.616	-0.088
N 	N 	0.7791	0.3437	0.6368	-0.043
N 	N 	0.7718	0.3863	0.6443	-0.09
C 	C 	0.897	0.1452	0.6743	0.358
C 	C 	0.9361	0.1658	0.6916	-0.025
C 	C 	0.9311	0.184	0.717	-0.087
H 	H 	0.904	0.1858	0.726	0.093
C 	C 	0.9658	0.2006	0.7304	0.101
C 	C 	0.9921	0.2374	0.7763	0.018
H 	H 	0.0218	0.2332	0.7749	0.033
C 	C 	0.9685	0.2596	0.7999	0.064
C 	C 	0.9857	0.2763	0.8272	0.043
C 	C 	0.0304	0.282	0.8322	-0.105
H 	H 	0.0498	0.2748	0.817	0.08
C 	C 	0.0441	0.2963	0.856	0.048
C 	C 	0.1707	0.5127	0.6276	-0.097
H 	H 	0.1534	0.524	0.6124	0.078
C 	C 	0.1665	0.4725	0.6341	0.051
C 	C 	0.9569	0.3028	0.8435	-0.092
H 	H 	0.9274	0.3007	0.8398	0.078
C 	C 	0.1443	0.4465	0.6155	0.04
C 	C 	0.1368	0.3974	0.6205	0.021
H 	H 	0.1475	0.3797	0.6357	0.032
C 	C 	0.093	0.3507	0.59	0.099
C 	C 	0.1073	0.3119	0.6081	-0.045
H 	H 	0.1282	0.3144	0.623	0.069
C 	C 	0.0877	0.2714	0.6015	-0.088
C 	C 	0.0616	0.2707	0.579	0.032
H 	H 	0.0554	0.2434	0.5715	0.052
C 	C 	0.0412	0.3047	0.5643	-0.066
C 	C 	0.065	0.3442	0.5687	-0.07
H 	H 	0.06	0.3667	0.5553	0.088
C 	C 	0.0102	0.3001	0.5407	0.334
C 	C 	0.8389	0.1924	0.6196	0.315
C 	C 	0.8404	0.2349	0.605	-0.039
C 	C 	0.8641	0.2384	0.5802	-0.008
H 	H 	0.8755	0.2137	0.5713	0.067
C 	C 	0.8723	0.2795	0.567	-0.048
C 	C 	0.8529	0.3126	0.579	-0.071
H 	H 	0.8534	0.3386	0.5684	0.08
C 	C 	0.832	0.3116	0.606	0.098
C 	C 	0.8219	0.2697	0.6169	-0.066
H 	H 	0.8022	0.2665	0.6326	0.088
C 	C 	0.8975	0.2845	0.5417	0.288
C 	C 	0.8282	0.3888	0.6162	-0.018
H 	H 	0.8534	0.3994	0.6075	0.047
C 	C 	0.7627	0.1001	0.6181	0.306
C 	C 	0.796	0.4097	0.6339	0.076
C 	C 	0.8431	0.9772	0.679	-0.024
H 	H 	0.8623	0.9804	0.6631	0.069
C 	C 	0.8229	0.0111	0.6909	-0.037
C 	C 	0.8022	0.0084	0.7178	-0.072
H 	H 	0.7906	0.0324	0.7274	0.079
C 	C 	0.8274	0.0518	0.6759	0.297
Cu	Cu	0.60495	0.64495	0.1272	0.914
Cu	Cu	0.64132	0.69391	0.16816	0.905
O 	O 	0.6266	0.59874	0.15158	-0.429
O 	O 	0.6518	0.63928	0.1878	-0.397
O 	O 	0.66064	0.64814	0.10668	-0.393
O 	O 	0.69247	0.6871	0.14342	-0.373
O 	O 	0.58932	0.69668	0.10981	-0.381
O 	O 	0.6249	0.74009	0.14197	-0.375
O 	O 	0.5559	0.64956	0.15235	-0.387
O 	O 	0.58476	0.6942	0.18747	-0.365
O 	O 	0.74798	0.5836	0.03033	-0.36
O 	O 	0.821	0.5925	0.0309	-0.381
O 	O 	0.7623	0.49665	0.03027	-0.396
O 	O 	0.83423	0.50532	0.97018	-0.388
N 	N 	0.7256	0.5354	0.259	-0.095
N 	N 	0.7466	0.5762	0.2631	-0.046
N 	N 	0.7578	0.566	0.2923	-0.088
N 	N 	0.9515	0.3686	0.0886	-0.075
N 	N 	0.9169	0.3849	0.0762	-0.042
N 	N 	0.8879	0.3876	0.0985	-0.099
N 	N 	0.8486	0.6894	0.116	-0.088
N 	N 	0.8437	0.7209	0.1368	-0.043
N 	N 	0.8863	0.7282	0.1443	-0.09
C 	C 	0.6452	0.603	0.1743	0.358
C 	C 	0.6658	0.5639	0.1916	-0.025
C 	C 	0.684	0.5689	0.217	-0.087
H 	H 	0.6858	0.596	0.226	0.093
C 	C 	0.7006	0.5342	0.2304	0.101
C 	C 	0.7374	0.5079	0.2763	0.018
H 	H 	0.7332	0.4782	0.2749	0.033
C 	C 	0.7596	0.5315	0.2999	0.064
C 	C 	0.7763	0.5143	0.3272	0.043
C 	C 	0.782	0.4696	0.3322	-0.105
H 	H 	0.7748	0.4502	0.317	0.08
C 	C 	0.7963	0.4559	0.356	0.048
C 	C 	0.0127	0.3293	0.1276	-0.097
H 	H 	0.024	0.3466	0.1124	0.078
C 	C 	0.9725	0.3335	0.1341	0.051
C 	C 	0.8028	0.5431	0.3435	-0.092
H 	H 	0.8007	0.5726	0.3398	0.078
C 	C 	0.9465	0.3557	0.1155	0.04
C 	C 	0.8974	0.3632	0.1205	0.021
H 	H 	0.8797	0.3525	0.1357	0.032
C 	C 	0.8507	0.407	0.09	0.098
C 	C 	0.8119	0.3927	0.1081	-0.045
H 	H 	0.8144	0.3718	0.123	0.069
C 	C 	0.7714	0.4123	0.1015	-0.089
C 	C 	0.7707	0.4384	0.079	0.033
H 	H 	0.7434	0.4446	0.0715	0.052
C 	C 	0.8047	0.4588	0.0643	-0.066
C 	C 	0.8442	0.435	0.0687	-0.07
H 	H 	0.8667	0.44	0.0553	0.088
C 	C 	0.8001	0.4898	0.0407	0.334
C 	C 	0.6924	0.6611	0.1196	0.315
C 	C 	0.7349	0.6596	0.105	-0.039
C 	C 	0.7384	0.6359	0.0802	-0.008
H 	H 	0.7137	0.6245	0.0713	0.066
C 	C 	0.7795	0.6277	0.067	-0.048
C 	C 	0.8126	0.6471	0.079	-0.071
H 	H 	0.8386	0.6466	0.0684	0.079
C 	C 	0.8116	0.668	0.106	0.097
C 	C 	0.7697	0.6781	0.1169	-0.066
H 	H 	0.7665	0.6978	0.1326	0.088
C 	C 	0.7845	0.6025	0.0417	0.288
C 	C 	0.8888	0.6718	0.1162	-0.018
H 	H 	0.8994	0.6466	0.1075	0.047
C 	C 	0.6001	0.7373	0.1181	0.306
C 	C 	0.9097	0.704	0.1339	0.076
C 	C 	0.4772	0.6569	0.179	-0.024
H 	H 	0.4804	0.6377	0.1631	0.069
C 	C 	0.5111	0.6771	0.1909	-0.037
C 	C 	0.5084	0.6978	0.2178	-0.072
H 	H 	0.5324	0.7094	0.2274	0.079
C 	C 	0.5518	0.6726	0.1759	0.297
Cu	Cu	0.10495	0.14495	0.6272	0.914
Cu	Cu	0.14132	0.19391	0.66816	0.905
O 	O 	0.1266	0.09874	0.65158	-0.429
O 	O 	0.1518	0.13928	0.6878	-0.397
O 	O 	0.16064	0.14814	0.60668	-0.393
O 	O 	0.19247	0.1871	0.64342	-0.373
O 	O 	0.08932	0.19668	0.60981	-0.381
O 	O 	0.1249	0.24009	0.64197	-0.375
O 	O 	0.0559	0.14956	0.65235	-0.387
O 	O 	0.08476	0.1942	0.68747	-0.365
O 	O 	0.24798	0.0836	0.53033	-0.359
O 	O 	0.321	0.0925	0.5309	-0.38
O 	O 	0.2623	0.99665	0.53027	-0.395
O 	O 	0.33423	0.00532	0.47018	-0.39
N 	N 	0.2256	0.0354	0.759	-0.095
N 	N 	0.2466	0.0762	0.7631	-0.046
N 	N 	0.2578	0.066	0.7923	-0.088
N 	N 	0.4515	0.8686	0.5886	-0.075
N 	N 	0.4169	0.8849	0.5762	-0.041
N 	N 	0.3879	0.8876	0.5985	-0.099
N 	N 	0.3486	0.1894	0.616	-0.088
N 	N 	0.3437	0.2209	0.6368	-0.043
N 	N 	0.3863	0.2282	0.6443	-0.09
C 	C 	0.1452	0.103	0.6743	0.358
C 	C 	0.1658	0.0639	0.6916	-0.025
C 	C 	0.184	0.0689	0.717	-0.087
H 	H 	0.1858	0.096	0.726	0.093
C 	C 	0.2006	0.0342	0.7304	0.101
C 	C 	0.2374	0.0079	0.7763	0.018
H 	H 	0.2332	0.9782	0.7749	0.033
C 	C 	0.2596	0.0315	0.7999	0.064
C 	C 	0.2763	0.0143	0.8272	0.043
C 	C 	0.282	0.9696	0.8322	-0.105
H 	H 	0.2748	0.9502	0.817	0.08
C 	C 	0.2963	0.9559	0.856	0.048
C 	C 	0.5127	0.8293	0.6276	-0.097
H 	H 	0.524	0.8466	0.6124	0.078
C 	C 	0.4725	0.8335	0.6341	0.051
C 	C 	0.3028	0.0431	0.8435	-0.092
H 	H 	0.3007	0.0726	0.8398	0.078
C 	C 	0.4465	0.8557	0.6155	0.04
C 	C 	0.3974	0.8632	0.6205	0.021
H 	H 	0.3797	0.8525	0.6357	0.032
C 	C 	0.3507	0.907	0.59	0.099
C 	C 	0.3119	0.8927	0.6081	-0.045
H 	H 	0.3144	0.8718	0.623	0.069
C 	C 	0.2714	0.9123	0.6015	-0.088
C 	C 	0.2707	0.9384	0.579	0.032
H 	H 	0.2434	0.9446	0.5715	0.052
C 	C 	0.3047	0.9588	0.5643	-0.066
C 	C 	0.3442	0.935	0.5687	-0.07
H 	H 	0.3667	0.94	0.5553	0.088
C 	C 	0.3001	0.9898	0.5407	0.334
C 	C 	0.1924	0.1611	0.6196	0.315
C 	C 	0.2349	0.1596	0.605	-0.039
C 	C 	0.2384	0.1359	0.5802	-0.008
H 	H 	0.2137	0.1245	0.5713	0.067
C 	C 	0.2795	0.1277	0.567	-0.048
C 	C 	0.3126	0.1471	0.579	-0.071
H 	H 	0.3386	0.1466	0.5684	0.08
C 	C 	0.3116	0.168	0.606	0.098
C 	C 	0.2697	0.1781	0.6169	-0.066
H 	H 	0.2665	0.1978	0.6326	0.088
C 	C 	0.2845	0.1025	0.5417	0.288
C 	C 	0.3888	0.1718	0.6162	-0.018
H 	H 	0.3994	0.1466	0.6075	0.047
C 	C 	0.1001	0.2373	0.6181	0.306
C 	C 	0.4097	0.204	0.6339	0.076
C 	C 	0.9772	0.1569	0.679	-0.024
H 	H 	0.9804	0.1377	0.6631	0.069
C 	C 	0.0111	0.1771	0.6909	-0.037
C 	C 	0.0084	0.1978	0.7178	-0.072
H 	H 	0.0324	0.2094	0.7274	0.079
C 	C 	0.0518	0.1726	0.6759	0.297
Cu	Cu	0.39505	0.35505	0.1272	0.914
Cu	Cu	0.35868	0.30609	0.16816	0.905
O 	O 	0.3734	0.40126	0.15158	-0.429
O 	O 	0.3482	0.36072	0.1878	-0.397
O 	O 	0.33936	0.35186	0.10668	-0.393
O 	O 	0.30753	0.3129	0.14342	-0.373
O 	O 	0.41068	0.30332	0.10981	-0.381
O 	O 	0.3751	0.25991	0.14197	-0.375
O 	O 	0.4441	0.35044	0.15235	-0.387
O 	O 	0.41524	0.3058	0.18747	-0.365
O 	O 	0.25202	0.4164	0.03033	-0.36
O 	O 	0.179	0.4075	0.0309	-0.381
O 	O 	0.2377	0.50335	0.03027	-0.396
O 	O 	0.16577	0.49468	0.97018	-0.388
N 	N 	0.2744	0.4646	0.259	-0.095
N 	N 	0.2534	0.4238	0.2631	-0.046
N 	N 	0.2422	0.434	0.2923	-0.088
N 	N 	0.0485	0.6314	0.0886	-0.075
N 	N 	0.0831	0.6151	0.0762	-0.042
N 	N 	0.1121	0.6124	0.0985	-0.099
N 	N 	0.1514	0.3106	0.116	-0.088
N 	N 	0.1563	0.2791	0.1368	-0.043
N 	N 	0.1137	0.2718	0.1443	-0.09
C 	C 	0.3548	0.397	0.1743	0.358
C 	C 	0.3342	0.4361	0.1916	-0.025
C 	C 	0.316	0.4311	0.217	-0.087
H 	H 	0.3142	0.404	0.226	0.093
C 	C 	0.2994	0.4658	0.2304	0.101
C 	C 	0.2626	0.4921	0.2763	0.018
H 	H 	0.2668	0.5218	0.2749	0.033
C 	C 	0.2404	0.4685	0.2999	0.064
C 	C 	0.2237	0.4857	0.3272	0.043
C 	C 	0.218	0.5304	0.3322	-0.105
H 	H 	0.2252	0.5498	0.317	0.08
C 	C 	0.2037	0.5441	0.356	0.048
C 	C 	0.9873	0.6707	0.1276	-0.097
H 	H 	0.976	0.6534	0.1124	0.078
C 	C 	0.0275	0.6665	0.1341	0.051
C 	C 	0.1972	0.4569	0.3435	-0.092
H 	H 	0.1993	0.4274	0.3398	0.078
C 	C 	0.0535	0.6443	0.1155	0.04
C 	C 	0.1026	0.6368	0.1205	0.021
H 	H 	0.1203	0.6475	0.1357	0.032
C 	C 	0.1493	0.593	0.09	0.098
C 	C 	0.1881	0.6073	0.1081	-0.045
H 	H 	0.1856	0.6282	0.123	0.069
C 	C 	0.2286	0.5877	0.1015	-0.089
C 	C 	0.2293	0.5616	0.079	0.033
H 	H 	0.2566	0.5554	0.0715	0.052
C 	C 	0.1953	0.5412	0.0643	-0.066
C 	C 	0.1558	0.565	0.0687	-0.07
H 	H 	0.1333	0.56	0.0553	0.088
C 	C 	0.1999	0.5102	0.0407	0.334
C 	C 	0.3076	0.3389	0.1196	0.315
C 	C 	0.2651	0.3404	0.105	-0.039
C 	C 	0.2616	0.3641	0.0802	-0.008
H 	H 	0.2863	0.3755	0.0713	0.066
C 	C 	0.2205	0.3723	0.067	-0.048
C 	C 	0.1874	0.3529	0.079	-0.071
H 	H 	0.1614	0.3534	0.0684	0.079
C 	C 	0.1884	0.332	0.106	0.097
C 	C 	0.2303	0.3219	0.1169	-0.066
H 	H 	0.2335	0.3022	0.1326	0.088
C 	C 	0.2155	0.3975	0.0417	0.288
C 	C 	0.1112	0.3282	0.1162	-0.018
H 	H 	0.1006	0.3534	0.1075	0.047
C 	C 	0.3999	0.2627	0.1181	0.306
C 	C 	0.0903	0.296	0.1339	0.076
C 	C 	0.5228	0.3431	0.179	-0.024
H 	H 	0.5196	0.3623	0.1631	0.069
C 	C 	0.4889	0.3229	0.1909	-0.037
C 	C 	0.4916	0.3022	0.2178	-0.072
H 	H 	0.4676	0.2906	0.2274	0.079
C 	C 	0.4482	0.3274	0.1759	0.297
Cu	Cu	0.89505	0.85505	0.6272	0.914
Cu	Cu	0.85868	0.80609	0.66816	0.905
O 	O 	0.8734	0.90126	0.65158	-0.429
O 	O 	0.8482	0.86072	0.6878	-0.397
O 	O 	0.83936	0.85186	0.60668	-0.393
O 	O 	0.80753	0.8129	0.64342	-0.373
O 	O 	0.91068	0.80332	0.60981	-0.381
O 	O 	0.8751	0.75991	0.64197	-0.375
O 	O 	0.9441	0.85044	0.65235	-0.387
O 	O 	0.91524	0.8058	0.68747	-0.365
O 	O 	0.75202	0.9164	0.53033	-0.359
O 	O 	0.679	0.9075	0.5309	-0.38
O 	O 	0.7377	0.00335	0.53027	-0.395
O 	O 	0.66577	0.99468	0.47018	-0.39
N 	N 	0.7744	0.9646	0.759	-0.095
N 	N 	0.7534	0.9238	0.7631	-0.046
N 	N 	0.7422	0.934	0.7923	-0.088
N 	N 	0.5485	0.1314	0.5886	-0.075
N 	N 	0.5831	0.1151	0.5762	-0.041
N 	N 	0.6121	0.1124	0.5985	-0.099
N 	N 	0.6514	0.8106	0.616	-0.088
N 	N 	0.6563	0.7791	0.6368	-0.043
N 	N 	0.6137	0.7718	0.6443	-0.09
C 	C 	0.8548	0.897	0.6743	0.358
C 	C 	0.8342	0.9361	0.6916	-0.025
C 	C 	0.816	0.9311	0.717	-0.087
H 	H 	0.8142	0.904	0.726	0.093
C 	C 	0.7994	0.9658	0.7304	0.101
C 	C 	0.7626	0.9921	0.7763	0.018
H 	H 	0.7668	0.0218	0.7749	0.033
C 	C 	0.7404	0.9685	0.7999	0.064
C 	C 	0.7237	0.9857	0.8272	0.043
C 	C 	0.718	0.0304	0.8322	-0.105
H 	H 	0.7252	0.0498	0.817	0.08
C 	C 	0.7037	0.0441	0.856	0.048
C 	C 	0.4873	0.1707	0.6276	-0.097
H 	H 	0.476	0.1534	0.6124	0.078
C 	C 	0.5275	0.1665	0.6341	0.051
C 	C 	0.6972	0.9569	0.8435	-0.092
H 	H 	0.6993	0.9274	0.8398	0.078
C 	C 	0.5535	0.1443	0.6155	0.04
C 	C 	0.6026	0.1368	0.6205	0.021
H 	H 	0.6203	0.1475	0.6357	0.032
C 	C 	0.6493	0.093	0.59	0.099
C 	C 	0.6881	0.1073	0.6081	-0.045
H 	H 	0.6856	0.1282	0.623	0.069
C 	C 	0.7286	0.0877	0.6015	-0.088
C 	C 	0.7293	0.0616	0.579	0.032
H 	H 	0.7566	0.0554	0.5715	0.052
C 	C 	0.6953	0.0412	0.5643	-0.066
C 	C 	0.6558	0.065	0.5687	-0.07
H 	H 	0.6333	0.06	0.5553	0.088
C 	C 	0.6999	0.0102	0.5407	0.334
C 	C 	0.8076	0.8389	0.6196	0.315
C 	C 	0.7651	0.8404	0.605	-0.039
C 	C 	0.7616	0.8641	0.5802	-0.008
H 	H 	0.7863	0.8755	0.5713	0.067
C 	C 	0.7205	0.8723	0.567	-0.048
C 	C 	0.6874	0.8529	0.579	-0.071
H 	H 	0.6614	0.8534	0.5684	0.08
C 	C 	0.6884	0.832	0.606	0.098
C 	C 	0.7303	0.8219	0.6169	-0.066
H 	H 	0.7335	0.8022	0.6326	0.088
C 	C 	0.7155	0.8975	0.5417	0.288
C 	C 	0.6112	0.8282	0.6162	-0.018
H 	H 	0.6006	0.8534	0.6075	0.047
C 	C 	0.8999	0.7627	0.6181	0.306
C 	C 	0.5903	0.796	0.6339	0.076
C 	C 	0.0228	0.8431	0.679	-0.024
H 	H 	0.0196	0.8623	0.6631	0.069
C 	C 	0.9889	0.8229	0.6909	-0.037
C 	C 	0.9916	0.8022	0.7178	-0.072
H 	H 	0.9676	0.7906	0.7274	0.079
C 	C 	0.9482	0.8274	0.6759	0.297
Cu	Cu	0.35505	0.60495	0.8728	0.915
Cu	Cu	0.30609	0.64132	0.83184	0.905
O 	O 	0.40126	0.6266	0.84842	-0.429
O 	O 	0.36072	0.6518	0.8122	-0.397
O 	O 	0.35186	0.66064	0.89332	-0.393
O 	O 	0.3129	0.69247	0.85658	-0.373
O 	O 	0.30332	0.58932	0.89019	-0.381
O 	O 	0.25991	0.6249	0.85803	-0.375
O 	O 	0.35044	0.5559	0.84765	-0.387
O 	O 	0.3058	0.58476	0.81253	-0.365
O 	O 	0.4164	0.74798	0.96967	-0.357
O 	O 	0.4075	0.821	0.9691	-0.378
O 	O 	0.50335	0.7623	0.96973	-0.393
O 	O 	0.49468	0.83423	0.02982	-0.391
N 	N 	0.4646	0.7256	0.741	-0.095
N 	N 	0.4238	0.7466	0.7369	-0.046
N 	N 	0.434	0.7578	0.7077	-0.088
N 	N 	0.6314	0.9515	0.9114	-0.075
N 	N 	0.6151	0.9169	0.9238	-0.041
N 	N 	0.6124	0.8879	0.9015	-0.099
N 	N 	0.3106	0.8486	0.884	-0.088
N 	N 	0.2791	0.8437	0.8632	-0.043
N 	N 	0.2718	0.8863	0.8557	-0.09
C 	C 	0.397	0.6452	0.8257	0.358
C 	C 	0.4361	0.6658	0.8084	-0.025
C 	C 	0.4311	0.684	0.783	-0.087
H 	H 	0.404	0.6858	0.774	0.093
C 	C 	0.4658	0.7006	0.7696	0.101
C 	C 	0.4921	0.7374	0.7237	0.018
H 	H 	0.5218	0.7332	0.7251	0.033
C 	C 	0.4685	0.7596	0.7001	0.064
C 	C 	0.4857	0.7763	0.6728	0.043
C 	C 	0.5304	0.782	0.6678	-0.105
H 	H 	0.5498	0.7748	0.683	0.08
C 	C 	0.5441	0.7963	0.644	0.048
C 	C 	0.6707	0.0127	0.8724	-0.097
H 	H 	0.6534	0.024	0.8876	0.078
C 	C 	0.6665	0.9725	0.8659	0.051
C 	C 	0.4569	0.8028	0.6565	-0.092
H 	H 	0.4274	0.8007	0.6602	0.078
C 	C 	0.6443	0.9465	0.8845	0.04
C 	C 	0.6368	0.8974	0.8795	0.021
H 	H 	0.6475	0.8797	0.8643	0.032
C 	C 	0.593	0.8507	0.91	0.099
C 	C 	0.6073	0.8119	0.8919	-0.045
H 	H 	0.6282	0.8144	0.877	0.07
C 	C 	0.5877	0.7714	0.8985	-0.088
C 	C 	0.5616	0.7707	0.921	0.032
H 	H 	0.5554	0.7434	0.9285	0.052
C 	C 	0.5412	0.8047	0.9357	-0.065
C 	C 	0.565	0.8442	0.9313	-0.07
H 	H 	0.56	0.8667	0.9447	0.089
C 	C 	0.5102	0.8001	0.9593	0.334
C 	C 	0.3389	0.6924	0.8804	0.315
C 	C 	0.3404	0.7349	0.895	-0.038
C 	C 	0.3641	0.7384	0.9198	-0.009
H 	H 	0.3755	0.7137	0.9287	0.067
C 	C 	0.3723	0.7795	0.933	-0.047
C 	C 	0.3529	0.8126	0.921	-0.071
H 	H 	0.3534	0.8386	0.9316	0.08
C 	C 	0.332	0.8116	0.894	0.098
C 	C 	0.3219	0.7697	0.8831	-0.067
H 	H 	0.3022	0.7665	0.8674	0.088
C 	C 	0.3975	0.7845	0.9583	0.288
C 	C 	0.3282	0.8888	0.8838	-0.018
H 	H 	0.3534	0.8994	0.8925	0.047
C 	C 	0.2627	0.6001	0.8819	0.306
C 	C 	0.296	0.9097	0.8661	0.076
C 	C 	0.3431	0.4772	0.821	-0.024
H 	H 	0.3623	0.4804	0.8369	0.069
C 	C 	0.3229	0.5111	0.8091	-0.037
C 	C 	0.3022	0.5084	0.7822	-0.072
H 	H 	0.2906	0.5324	0.7726	0.079
C 	C 	0.3274	0.5518	0.8241	0.297
Cu	Cu	0.85505	0.10495	0.3728	0.914
Cu	Cu	0.80609	0.14132	0.33184	0.905
O 	O 	0.90126	0.1266	0.34842	-0.429
O 	O 	0.86072	0.1518	0.3122	-0.397
O 	O 	0.85186	0.16064	0.39332	-0.393
O 	O 	0.8129	0.19247	0.35658	-0.373
O 	O 	0.80332	0.08932	0.39019	-0.381
O 	O 	0.75991	0.1249	0.35803	-0.375
O 	O 	0.85044	0.0559	0.34765	-0.387
O 	O 	0.8058	0.08476	0.31253	-0.365
O 	O 	0.9164	0.24798	0.46967	-0.359
O 	O 	0.9075	0.321	0.4691	-0.38
O 	O 	0.00335	0.2623	0.46973	-0.395
O 	O 	0.99468	0.33423	0.52982	-0.39
N 	N 	0.9646	0.2256	0.241	-0.095
N 	N 	0.9238	0.2466	0.2369	-0.046
N 	N 	0.934	0.2578	0.2077	-0.088
N 	N 	0.1314	0.4515	0.4114	-0.075
N 	N 	0.1151	0.4169	0.4238	-0.041
N 	N 	0.1124	0.3879	0.4015	-0.099
N 	N 	0.8106	0.3486	0.384	-0.088
N 	N 	0.7791	0.3437	0.3632	-0.043
N 	N 	0.7718	0.3863	0.3557	-0.09
C 	C 	0.897	0.1452	0.3257	0.358
C 	C 	0.9361	0.1658	0.3084	-0.025
C 	C 	0.9311	0.184	0.283	-0.087
H 	H 	0.904	0.1858	0.274	0.093
C 	C 	0.9658	0.2006	0.2696	0.101
C 	C 	0.9921	0.2374	0.2237	0.017
H 	H 	0.0218	0.2332	0.2251	0.033
C 	C 	0.9685	0.2596	0.2001	0.064
C 	C 	0.9857	0.2763	0.1728	0.043
C 	C 	0.0304	0.282	0.1678	-0.105
H 	H 	0.0498	0.2748	0.183	0.08
C 	C 	0.0441	0.2963	0.144	0.048
C 	C 	0.1707	0.5127	0.3724	-0.097
H 	H 	0.1534	0.524	0.3876	0.078
C 	C 	0.1665	0.4725	0.3659	0.051
C 	C 	0.9569	0.3028	0.1565	-0.092
H 	H 	0.9274	0.3007	0.1602	0.078
C 	C 	0.1443	0.4465	0.3845	0.04
C 	C 	0.1368	0.3974	0.3795	0.021
H 	H 	0.1475	0.3797	0.3643	0.032
C 	C 	0.093	0.3507	0.41	0.099
C 	C 	0.1073	0.3119	0.3919	-0.045
H 	H 	0.1282	0.3144	0.377	0.069
C 	C 	0.0877	0.2714	0.3985	-0.088
C 	C 	0.0616	0.2707	0.421	0.032
H 	H 	0.0554	0.2434	0.4285	0.052
C 	C 	0.0412	0.3047	0.4357	-0.066
C 	C 	0.065	0.3442	0.4313	-0.07
H 	H 	0.06	0.3667	0.4447	0.088
C 	C 	0.0102	0.3001	0.4593	0.334
C 	C 	0.8389	0.1924	0.3804	0.315
C 	C 	0.8404	0.2349	0.395	-0.039
C 	C 	0.8641	0.2384	0.4198	-0.008
H 	H 	0.8755	0.2137	0.4287	0.067
C 	C 	0.8723	0.2795	0.433	-0.048
C 	C 	0.8529	0.3126	0.421	-0.071
H 	H 	0.8534	0.3386	0.4316	0.08
C 	C 	0.832	0.3116	0.394	0.098
C 	C 	0.8219	0.2697	0.3831	-0.066
H 	H 	0.8022	0.2665	0.3674	0.088
C 	C 	0.8975	0.2845	0.4583	0.288
C 	C 	0.8282	0.3888	0.3838	-0.018
H 	H 	0.8534	0.3994	0.3925	0.047
C 	C 	0.7627	0.1001	0.3819	0.306
C 	C 	0.796	0.4097	0.3661	0.076
C 	C 	0.8431	0.9772	0.321	-0.024
H 	H 	0.8623	0.9804	0.3369	0.069
C 	C 	0.8229	0.0111	0.3091	-0.037
C 	C 	0.8022	0.0084	0.2822	-0.072
H 	H 	0.7906	0.0324	0.2726	0.079
C 	C 	0.8274	0.0518	0.3241	0.297
Cu	Cu	0.64495	0.39505	0.8728	0.915
Cu	Cu	0.69391	0.35868	0.83184	0.905
O 	O 	0.59874	0.3734	0.84842	-0.429
O 	O 	0.63928	0.3482	0.8122	-0.397
O 	O 	0.64814	0.33936	0.89332	-0.393
O 	O 	0.6871	0.30753	0.85658	-0.373
O 	O 	0.69668	0.41068	0.89019	-0.381
O 	O 	0.74009	0.3751	0.85803	-0.375
O 	O 	0.64956	0.4441	0.84765	-0.387
O 	O 	0.6942	0.41524	0.81253	-0.365
O 	O 	0.5836	0.25202	0.96967	-0.357
O 	O 	0.5925	0.179	0.9691	-0.378
O 	O 	0.49665	0.2377	0.96973	-0.393
O 	O 	0.50532	0.16577	0.02982	-0.391
N 	N 	0.5354	0.2744	0.741	-0.095
N 	N 	0.5762	0.2534	0.7369	-0.046
N 	N 	0.566	0.2422	0.7077	-0.088
N 	N 	0.3686	0.0485	0.9114	-0.075
N 	N 	0.3849	0.0831	0.9238	-0.041
N 	N 	0.3876	0.1121	0.9015	-0.099
N 	N 	0.6894	0.1514	0.884	-0.088
N 	N 	0.7209	0.1563	0.8632	-0.043
N 	N 	0.7282	0.1137	0.8557	-0.09
C 	C 	0.603	0.3548	0.8257	0.358
C 	C 	0.5639	0.3342	0.8084	-0.025
C 	C 	0.5689	0.316	0.783	-0.087
H 	H 	0.596	0.3142	0.774	0.093
C 	C 	0.5342	0.2994	0.7696	0.101
C 	C 	0.5079	0.2626	0.7237	0.018
H 	H 	0.4782	0.2668	0.7251	0.033
C 	C 	0.5315	0.2404	0.7001	0.064
C 	C 	0.5143	0.2237	0.6728	0.043
C 	C 	0.4696	0.218	0.6678	-0.105
H 	H 	0.4502	0.2252	0.683	0.08
C 	C 	0.4559	0.2037	0.644	0.048
C 	C 	0.3293	0.9873	0.8724	-0.097
H 	H 	0.3466	0.976	0.8876	0.078
C 	C 	0.3335	0.0275	0.8659	0.051
C 	C 	0.5431	0.1972	0.6565	-0.092
H 	H 	0.5726	0.1993	0.6602	0.078
C 	C 	0.3557	0.0535	0.8845	0.04
C 	C 	0.3632	0.1026	0.8795	0.021
H 	H 	0.3525	0.1203	0.8643	0.032
C 	C 	0.407	0.1493	0.91	0.099
C 	C 	0.3927	0.1881	0.8919	-0.045
H 	H 	0.3718	0.1856	0.877	0.07
C 	C 	0.4123	0.2286	0.8985	-0.088
C 	C 	0.4384	0.2293	0.921	0.032
H 	H 	0.4446	0.2566	0.9285	0.052
C 	C 	0.4588	0.1953	0.9357	-0.065
C 	C 	0.435	0.1558	0.9313	-0.07
H 	H 	0.44	0.1333	0.9447	0.089
C 	C 	0.4898	0.1999	0.9593	0.334
C 	C 	0.6611	0.3076	0.8804	0.315
C 	C 	0.6596	0.2651	0.895	-0.038
C 	C 	0.6359	0.2616	0.9198	-0.009
H 	H 	0.6245	0.2863	0.9287	0.067
C 	C 	0.6277	0.2205	0.933	-0.047
C 	C 	0.6471	0.1874	0.921	-0.071
H 	H 	0.6466	0.1614	0.9316	0.08
C 	C 	0.668	0.1884	0.894	0.098
C 	C 	0.6781	0.2303	0.8831	-0.067
H 	H 	0.6978	0.2335	0.8674	0.088
C 	C 	0.6025	0.2155	0.9583	0.288
C 	C 	0.6718	0.1112	0.8838	-0.018
H 	H 	0.6466	0.1006	0.8925	0.047
C 	C 	0.7373	0.3999	0.8819	0.306
C 	C 	0.704	0.0903	0.8661	0.076
C 	C 	0.6569	0.5228	0.821	-0.024
H 	H 	0.6377	0.5196	0.8369	0.069
C 	C 	0.6771	0.4889	0.8091	-0.037
C 	C 	0.6978	0.4916	0.7822	-0.072
H 	H 	0.7094	0.4676	0.7726	0.079
C 	C 	0.6726	0.4482	0.8241	0.297
Cu	Cu	0.14495	0.89505	0.3728	0.914
Cu	Cu	0.19391	0.85868	0.33184	0.905
O 	O 	0.09874	0.8734	0.34842	-0.429
O 	O 	0.13928	0.8482	0.3122	-0.397
O 	O 	0.14814	0.83936	0.39332	-0.393
O 	O 	0.1871	0.80753	0.35658	-0.373
O 	O 	0.19668	0.91068	0.39019	-0.381
O 	O 	0.24009	0.8751	0.35803	-0.375
O 	O 	0.14956	0.9441	0.34765	-0.387
O 	O 	0.1942	0.91524	0.31253	-0.365
O 	O 	0.0836	0.75202	0.46967	-0.359
O 	O 	0.0925	0.679	0.4691	-0.38
O 	O 	0.99665	0.7377	0.46973	-0.395
O 	O 	0.00532	0.66577	0.52982	-0.39
N 	N 	0.0354	0.7744	0.241	-0.095
N 	N 	0.0762	0.7534	0.2369	-0.046
N 	N 	0.066	0.7422	0.2077	-0.088
N 	N 	0.8686	0.5485	0.4114	-0.075
N 	N 	0.8849	0.5831	0.4238	-0.041
N 	N 	0.8876	0.6121	0.4015	-0.099
N 	N 	0.1894	0.6514	0.384	-0.088
N 	N 	0.2209	0.6563	0.3632	-0.043
N 	N 	0.2282	0.6137	0.3557	-0.09
C 	C 	0.103	0.8548	0.3257	0.358
C 	C 	0.0639	0.8342	0.3084	-0.025
C 	C 	0.0689	0.816	0.283	-0.087
H 	H 	0.096	0.8142	0.274	0.093
C 	C 	0.0342	0.7994	0.2696	0.101
C 	C 	0.0079	0.7626	0.2237	0.017
H 	H 	0.9782	0.7668	0.2251	0.033
C 	C 	0.0315	0.7404	0.2001	0.064
C 	C 	0.0143	0.7237	0.1728	0.043
C 	C 	0.9696	0.718	0.1678	-0.105
H 	H 	0.9502	0.7252	0.183	0.08
C 	C 	0.9559	0.7037	0.144	0.048
C 	C 	0.8293	0.4873	0.3724	-0.097
H 	H 	0.8466	0.476	0.3876	0.078
C 	C 	0.8335	0.5275	0.3659	0.051
C 	C 	0.0431	0.6972	0.1565	-0.092
H 	H 	0.0726	0.6993	0.1602	0.078
C 	C 	0.8557	0.5535	0.3845	0.04
C 	C 	0.8632	0.6026	0.3795	0.021
H 	H 	0.8525	0.6203	0.3643	0.032
C 	C 	0.907	0.6493	0.41	0.099
C 	C 	0.8927	0.6881	0.3919	-0.045
H 	H 	0.8718	0.6856	0.377	0.069
C 	C 	0.9123	0.7286	0.3985	-0.088
C 	C 	0.9384	0.7293	0.421	0.032
H 	H 	0.9446	0.7566	0.4285	0.052
C 	C 	0.9588	0.6953	0.4357	-0.066
C 	C 	0.935	0.6558	0.4313	-0.07
H 	H 	0.94	0.6333	0.4447	0.088
C 	C 	0.9898	0.6999	0.4593	0.334
C 	C 	0.1611	0.8076	0.3804	0.315
C 	C 	0.1596	0.7651	0.395	-0.039
C 	C 	0.1359	0.7616	0.4198	-0.008
H 	H 	0.1245	0.7863	0.4287	0.067
C 	C 	0.1277	0.7205	0.433	-0.048
C 	C 	0.1471	0.6874	0.421	-0.071
H 	H 	0.1466	0.6614	0.4316	0.08
C 	C 	0.168	0.6884	0.394	0.098
C 	C 	0.1781	0.7303	0.3831	-0.066
H 	H 	0.1978	0.7335	0.3674	0.088
C 	C 	0.1025	0.7155	0.4583	0.288
C 	C 	0.1718	0.6112	0.3838	-0.018
H 	H 	0.1466	0.6006	0.3925	0.047
C 	C 	0.2373	0.8999	0.3819	0.306
C 	C 	0.204	0.5903	0.3661	0.076
C 	C 	0.1569	0.0228	0.321	-0.024
H 	H 	0.1377	0.0196	0.3369	0.069
C 	C 	0.1771	0.9889	0.3091	-0.037
C 	C 	0.1978	0.9916	0.2822	-0.072
H 	H 	0.2094	0.9676	0.2726	0.079
C 	C 	0.1726	0.9482	0.3241	0.297
Cu	Cu	0.39505	0.35505	0.8728	0.915
Cu	Cu	0.35868	0.30609	0.83184	0.905
O 	O 	0.3734	0.40126	0.84842	-0.429
O 	O 	0.3482	0.36072	0.8122	-0.397
O 	O 	0.33936	0.35186	0.89332	-0.393
O 	O 	0.30753	0.3129	0.85658	-0.373
O 	O 	0.41068	0.30332	0.89019	-0.381
O 	O 	0.3751	0.25991	0.85803	-0.375
O 	O 	0.4441	0.35044	0.84765	-0.387
O 	O 	0.41524	0.3058	0.81253	-0.365
O 	O 	0.25202	0.4164	0.96967	-0.357
O 	O 	0.179	0.4075	0.9691	-0.378
O 	O 	0.2377	0.50335	0.96973	-0.393
O 	O 	0.16577	0.49468	0.02982	-0.391
N 	N 	0.2744	0.4646	0.741	-0.095
N 	N 	0.2534	0.4238	0.7369	-0.046
N 	N 	0.2422	0.434	0.7077	-0.088
N 	N 	0.0485	0.6314	0.9114	-0.075
N 	N 	0.0831	0.6151	0.9238	-0.041
N 	N 	0.1121	0.6124	0.9015	-0.099
N 	N 	0.1514	0.3106	0.884	-0.088
N 	N 	0.1563	0.2791	0.8632	-0.043
N 	N 	0.1137	0.2718	0.8557	-0.09
C 	C 	0.3548	0.397	0.8257	0.358
C 	C 	0.3342	0.4361	0.8084	-0.025
C 	C 	0.316	0.4311	0.783	-0.087
H 	H 	0.3142	0.404	0.774	0.093
C 	C 	0.2994	0.4658	0.7696	0.101
C 	C 	0.2626	0.4921	0.7237	0.018
H 	H 	0.2668	0.5218	0.7251	0.033
C 	C 	0.2404	0.4685	0.7001	0.064
C 	C 	0.2237	0.4857	0.6728	0.043
C 	C 	0.218	0.5304	0.6678	-0.105
H 	H 	0.2252	0.5498	0.683	0.08
C 	C 	0.2037	0.5441	0.644	0.048
C 	C 	0.9873	0.6707	0.8724	-0.097
H 	H 	0.976	0.6534	0.8876	0.078
C 	C 	0.0275	0.6665	0.8659	0.051
C 	C 	0.1972	0.4569	0.6565	-0.092
H 	H 	0.1993	0.4274	0.6602	0.078
C 	C 	0.0535	0.6443	0.8845	0.04
C 	C 	0.1026	0.6368	0.8795	0.021
H 	H 	0.1203	0.6475	0.8643	0.032
C 	C 	0.1493	0.593	0.91	0.099
C 	C 	0.1881	0.6073	0.8919	-0.045
H 	H 	0.1856	0.6282	0.877	0.07
C 	C 	0.2286	0.5877	0.8985	-0.088
C 	C 	0.2293	0.5616	0.921	0.032
H 	H 	0.2566	0.5554	0.9285	0.052
C 	C 	0.1953	0.5412	0.9357	-0.065
C 	C 	0.1558	0.565	0.9313	-0.07
H 	H 	0.1333	0.56	0.9447	0.089
C 	C 	0.1999	0.5102	0.9593	0.334
C 	C 	0.3076	0.3389	0.8804	0.315
C 	C 	0.2651	0.3404	0.895	-0.038
C 	C 	0.2616	0.3641	0.9198	-0.009
H 	H 	0.2863	0.3755	0.9287	0.067
C 	C 	0.2205	0.3723	0.933	-0.047
C 	C 	0.1874	0.3529	0.921	-0.071
H 	H 	0.1614	0.3534	0.9316	0.08
C 	C 	0.1884	0.332	0.894	0.098
C 	C 	0.2303	0.3219	0.8831	-0.067
H 	H 	0.2335	0.3022	0.8674	0.088
C 	C 	0.2155	0.3975	0.9583	0.288
C 	C 	0.1112	0.3282	0.8838	-0.018
H 	H 	0.1006	0.3534	0.8925	0.047
C 	C 	0.3999	0.2627	0.8819	0.306
C 	C 	0.0903	0.296	0.8661	0.076
C 	C 	0.5228	0.3431	0.821	-0.024
H 	H 	0.5196	0.3623	0.8369	0.069
C 	C 	0.4889	0.3229	0.8091	-0.037
C 	C 	0.4916	0.3022	0.7822	-0.072
H 	H 	0.4676	0.2906	0.7726	0.079
C 	C 	0.4482	0.3274	0.8241	0.297
Cu	Cu	0.89505	0.85505	0.3728	0.914
Cu	Cu	0.85868	0.80609	0.33184	0.905
O 	O 	0.8734	0.90126	0.34842	-0.429
O 	O 	0.8482	0.86072	0.3122	-0.397
O 	O 	0.83936	0.85186	0.39332	-0.393
O 	O 	0.80753	0.8129	0.35658	-0.373
O 	O 	0.91068	0.80332	0.39019	-0.381
O 	O 	0.8751	0.75991	0.35803	-0.375
O 	O 	0.9441	0.85044	0.34765	-0.387
O 	O 	0.91524	0.8058	0.31253	-0.365
O 	O 	0.75202	0.9164	0.46967	-0.359
O 	O 	0.679	0.9075	0.4691	-0.38
O 	O 	0.7377	0.00335	0.46973	-0.395
O 	O 	0.66577	0.99468	0.52982	-0.39
N 	N 	0.7744	0.9646	0.241	-0.095
N 	N 	0.7534	0.9238	0.2369	-0.046
N 	N 	0.7422	0.934	0.2077	-0.088
N 	N 	0.5485	0.1314	0.4114	-0.075
N 	N 	0.5831	0.1151	0.4238	-0.041
N 	N 	0.6121	0.1124	0.4015	-0.099
N 	N 	0.6514	0.8106	0.384	-0.088
N 	N 	0.6563	0.7791	0.3632	-0.043
N 	N 	0.6137	0.7718	0.3557	-0.09
C 	C 	0.8548	0.897	0.3257	0.358
C 	C 	0.8342	0.9361	0.3084	-0.025
C 	C 	0.816	0.9311	0.283	-0.087
H 	H 	0.8142	0.904	0.274	0.093
C 	C 	0.7994	0.9658	0.2696	0.101
C 	C 	0.7626	0.9921	0.2237	0.017
H 	H 	0.7668	0.0218	0.2251	0.033
C 	C 	0.7404	0.9685	0.2001	0.064
C 	C 	0.7237	0.9857	0.1728	0.043
C 	C 	0.718	0.0304	0.1678	-0.105
H 	H 	0.7252	0.0498	0.183	0.08
C 	C 	0.7037	0.0441	0.144	0.048
C 	C 	0.4873	0.1707	0.3724	-0.097
H 	H 	0.476	0.1534	0.3876	0.078
C 	C 	0.5275	0.1665	0.3659	0.051
C 	C 	0.6972	0.9569	0.1565	-0.092
H 	H 	0.6993	0.9274	0.1602	0.078
C 	C 	0.5535	0.1443	0.3845	0.04
C 	C 	0.6026	0.1368	0.3795	0.021
H 	H 	0.6203	0.1475	0.3643	0.032
C 	C 	0.6493	0.093	0.41	0.099
C 	C 	0.6881	0.1073	0.3919	-0.045
H 	H 	0.6856	0.1282	0.377	0.069
C 	C 	0.7286	0.0877	0.3985	-0.088
C 	C 	0.7293	0.0616	0.421	0.032
H 	H 	0.7566	0.0554	0.4285	0.052
C 	C 	0.6953	0.0412	0.4357	-0.066
C 	C 	0.6558	0.065	0.4313	-0.07
H 	H 	0.6333	0.06	0.4447	0.088
C 	C 	0.6999	0.0102	0.4593	0.334
C 	C 	0.8076	0.8389	0.3804	0.315
C 	C 	0.7651	0.8404	0.395	-0.039
C 	C 	0.7616	0.8641	0.4198	-0.008
H 	H 	0.7863	0.8755	0.4287	0.067
C 	C 	0.7205	0.8723	0.433	-0.048
C 	C 	0.6874	0.8529	0.421	-0.071
H 	H 	0.6614	0.8534	0.4316	0.08
C 	C 	0.6884	0.832	0.394	0.098
C 	C 	0.7303	0.8219	0.3831	-0.066
H 	H 	0.7335	0.8022	0.3674	0.088
C 	C 	0.7155	0.8975	0.4583	0.288
C 	C 	0.6112	0.8282	0.3838	-0.018
H 	H 	0.6006	0.8534	0.3925	0.047
C 	C 	0.8999	0.7627	0.3819	0.306
C 	C 	0.5903	0.796	0.3661	0.076
C 	C 	0.0228	0.8431	0.321	-0.024
H 	H 	0.0196	0.8623	0.3369	0.069
C 	C 	0.9889	0.8229	0.3091	-0.037
C 	C 	0.9916	0.8022	0.2822	-0.072
H 	H 	0.9676	0.7906	0.2726	0.079
C 	C 	0.9482	0.8274	0.3241	0.297
Cu	Cu	0.60495	0.64495	0.8728	0.915
Cu	Cu	0.64132	0.69391	0.83184	0.905
O 	O 	0.6266	0.59874	0.84842	-0.429
O 	O 	0.6518	0.63928	0.8122	-0.397
O 	O 	0.66064	0.64814	0.89332	-0.393
O 	O 	0.69247	0.6871	0.85658	-0.373
O 	O 	0.58932	0.69668	0.89019	-0.381
O 	O 	0.6249	0.74009	0.85803	-0.375
O 	O 	0.5559	0.64956	0.84765	-0.387
O 	O 	0.58476	0.6942	0.81253	-0.365
O 	O 	0.74798	0.5836	0.96967	-0.357
O 	O 	0.821	0.5925	0.9691	-0.378
O 	O 	0.7623	0.49665	0.96973	-0.393
O 	O 	0.83423	0.50532	0.02982	-0.391
N 	N 	0.7256	0.5354	0.741	-0.095
N 	N 	0.7466	0.5762	0.7369	-0.046
N 	N 	0.7578	0.566	0.7077	-0.088
N 	N 	0.9515	0.3686	0.9114	-0.075
N 	N 	0.9169	0.3849	0.9238	-0.041
N 	N 	0.8879	0.3876	0.9015	-0.099
N 	N 	0.8486	0.6894	0.884	-0.088
N 	N 	0.8437	0.7209	0.8632	-0.043
N 	N 	0.8863	0.7282	0.8557	-0.09
C 	C 	0.6452	0.603	0.8257	0.358
C 	C 	0.6658	0.5639	0.8084	-0.025
C 	C 	0.684	0.5689	0.783	-0.087
H 	H 	0.6858	0.596	0.774	0.093
C 	C 	0.7006	0.5342	0.7696	0.101
C 	C 	0.7374	0.5079	0.7237	0.018
H 	H 	0.7332	0.4782	0.7251	0.033
C 	C 	0.7596	0.5315	0.7001	0.064
C 	C 	0.7763	0.5143	0.6728	0.043
C 	C 	0.782	0.4696	0.6678	-0.105
H 	H 	0.7748	0.4502	0.683	0.08
C 	C 	0.7963	0.4559	0.644	0.048
C 	C 	0.0127	0.3293	0.8724	-0.097
H 	H 	0.024	0.3466	0.8876	0.078
C 	C 	0.9725	0.3335	0.8659	0.051
C 	C 	0.8028	0.5431	0.6565	-0.092
H 	H 	0.8007	0.5726	0.6602	0.078
C 	C 	0.9465	0.3557	0.8845	0.04
C 	C 	0.8974	0.3632	0.8795	0.021
H 	H 	0.8797	0.3525	0.8643	0.032
C 	C 	0.8507	0.407	0.91	0.099
C 	C 	0.8119	0.3927	0.8919	-0.045
H 	H 	0.8144	0.3718	0.877	0.07
C 	C 	0.7714	0.4123	0.8985	-0.088
C 	C 	0.7707	0.4384	0.921	0.032
H 	H 	0.7434	0.4446	0.9285	0.052
C 	C 	0.8047	0.4588	0.9357	-0.065
C 	C 	0.8442	0.435	0.9313	-0.07
H 	H 	0.8667	0.44	0.9447	0.089
C 	C 	0.8001	0.4898	0.9593	0.334
C 	C 	0.6924	0.6611	0.8804	0.315
C 	C 	0.7349	0.6596	0.895	-0.038
C 	C 	0.7384	0.6359	0.9198	-0.009
H 	H 	0.7137	0.6245	0.9287	0.067
C 	C 	0.7795	0.6277	0.933	-0.047
C 	C 	0.8126	0.6471	0.921	-0.071
H 	H 	0.8386	0.6466	0.9316	0.08
C 	C 	0.8116	0.668	0.894	0.098
C 	C 	0.7697	0.6781	0.8831	-0.067
H 	H 	0.7665	0.6978	0.8674	0.088
C 	C 	0.7845	0.6025	0.9583	0.288
C 	C 	0.8888	0.6718	0.8838	-0.018
H 	H 	0.8994	0.6466	0.8925	0.047
C 	C 	0.6001	0.7373	0.8819	0.306
C 	C 	0.9097	0.704	0.8661	0.076
C 	C 	0.4772	0.6569	0.821	-0.024
H 	H 	0.4804	0.6377	0.8369	0.069
C 	C 	0.5111	0.6771	0.8091	-0.037
C 	C 	0.5084	0.6978	0.7822	-0.072
H 	H 	0.5324	0.7094	0.7726	0.079
C 	C 	0.5518	0.6726	0.8241	0.297
Cu	Cu	0.10495	0.14495	0.3728	0.914
Cu	Cu	0.14132	0.19391	0.33184	0.905
O 	O 	0.1266	0.09874	0.34842	-0.429
O 	O 	0.1518	0.13928	0.3122	-0.397
O 	O 	0.16064	0.14814	0.39332	-0.393
O 	O 	0.19247	0.1871	0.35658	-0.373
O 	O 	0.08932	0.19668	0.39019	-0.381
O 	O 	0.1249	0.24009	0.35803	-0.375
O 	O 	0.0559	0.14956	0.34765	-0.387
O 	O 	0.08476	0.1942	0.31253	-0.365
O 	O 	0.24798	0.0836	0.46967	-0.359
O 	O 	0.321	0.0925	0.4691	-0.38
O 	O 	0.2623	0.99665	0.46973	-0.395
O 	O 	0.33423	0.00532	0.52982	-0.39
N 	N 	0.2256	0.0354	0.241	-0.095
N 	N 	0.2466	0.0762	0.2369	-0.046
N 	N 	0.2578	0.066	0.2077	-0.088
N 	N 	0.4515	0.8686	0.4114	-0.075
N 	N 	0.4169	0.8849	0.4238	-0.041
N 	N 	0.3879	0.8876	0.4015	-0.099
N 	N 	0.3486	0.1894	0.384	-0.088
N 	N 	0.3437	0.2209	0.3632	-0.043
N 	N 	0.3863	0.2282	0.3557	-0.09
C 	C 	0.1452	0.103	0.3257	0.358
C 	C 	0.1658	0.0639	0.3084	-0.025
C 	C 	0.184	0.0689	0.283	-0.087
H 	H 	0.1858	0.096	0.274	0.093
C 	C 	0.2006	0.0342	0.2696	0.101
C 	C 	0.2374	0.0079	0.2237	0.017
H 	H 	0.2332	0.9782	0.2251	0.033
C 	C 	0.2596	0.0315	0.2001	0.064
C 	C 	0.2763	0.0143	0.1728	0.043
C 	C 	0.282	0.9696	0.1678	-0.105
H 	H 	0.2748	0.9502	0.183	0.08
C 	C 	0.2963	0.9559	0.144	0.048
C 	C 	0.5127	0.8293	0.3724	-0.097
H 	H 	0.524	0.8466	0.3876	0.078
C 	C 	0.4725	0.8335	0.3659	0.051
C 	C 	0.3028	0.0431	0.1565	-0.092
H 	H 	0.3007	0.0726	0.1602	0.078
C 	C 	0.4465	0.8557	0.3845	0.04
C 	C 	0.3974	0.8632	0.3795	0.021
H 	H 	0.3797	0.8525	0.3643	0.032
C 	C 	0.3507	0.907	0.41	0.099
C 	C 	0.3119	0.8927	0.3919	-0.045
H 	H 	0.3144	0.8718	0.377	0.069
C 	C 	0.2714	0.9123	0.3985	-0.088
C 	C 	0.2707	0.9384	0.421	0.032
H 	H 	0.2434	0.9446	0.4285	0.052
C 	C 	0.3047	0.9588	0.4357	-0.066
C 	C 	0.3442	0.935	0.4313	-0.07
H 	H 	0.3667	0.94	0.4447	0.088
C 	C 	0.3001	0.9898	0.4593	0.334
C 	C 	0.1924	0.1611	0.3804	0.315
C 	C 	0.2349	0.1596	0.395	-0.039
C 	C 	0.2384	0.1359	0.4198	-0.008
H 	H 	0.2137	0.1245	0.4287	0.067
C 	C 	0.2795	0.1277	0.433	-0.048
C 	C 	0.3126	0.1471	0.421	-0.071
H 	H 	0.3386	0.1466	0.4316	0.08
C 	C 	0.3116	0.168	0.394	0.098
C 	C 	0.2697	0.1781	0.3831	-0.066
H 	H 	0.2665	0.1978	0.3674	0.088
C 	C 	0.2845	0.1025	0.4583	0.288
C 	C 	0.3888	0.1718	0.3838	-0.018
H 	H 	0.3994	0.1466	0.3925	0.047
C 	C 	0.1001	0.2373	0.3819	0.306
C 	C 	0.4097	0.204	0.3661	0.076
C 	C 	0.9772	0.1569	0.321	-0.024
H 	H 	0.9804	0.1377	0.3369	0.069
C 	C 	0.0111	0.1771	0.3091	-0.037
C 	C 	0.0084	0.1978	0.2822	-0.072
H 	H 	0.0324	0.2094	0.2726	0.079
C 	C 	0.0518	0.1726	0.3241	0.297
Cu	Cu	0.53852	0.25052	-0	0.903
Cu	Cu	0.55021	0.1665	-0	0.906
Cu	Cu	0.03852	0.75052	0.5	0.905
Cu	Cu	0.05021	0.6665	0.5	0.907
Cu	Cu	0.46148	0.74948	-0	0.903
Cu	Cu	0.44979	0.8335	-0	0.906
Cu	Cu	0.96148	0.24948	0.5	0.905
Cu	Cu	0.94979	0.3335	0.5	0.907
Cu	Cu	0.74948	0.53852	-0	0.903
Cu	Cu	0.8335	0.55021	-0	0.906
Cu	Cu	0.24948	0.03852	0.5	0.905
Cu	Cu	0.3335	0.05021	0.5	0.907
Cu	Cu	0.25052	0.46148	-0	0.903
Cu	Cu	0.1665	0.44979	-0	0.906
Cu	Cu	0.75052	0.96148	0.5	0.905
Cu	Cu	0.6665	0.94979	0.5	0.907
_end
