data_functionalizedCrystal
_audit_creation_method	'EQeq! by Chris Wilmer'
_symmetry_space_group_name_H-M	'P1'
_symmetry_Int_Tables_number	1
_symmetry_cell_setting	triclinic
loop_
_symmetry_equiv_pos_as_xyz
  x,y,z
_cell_length_a	59.872
_cell_length_b	59.872
_cell_length_c	59.872
_cell_angle_alpha	90
_cell_angle_beta	90
_cell_angle_gamma	90
loop_
_atom_site_label
_atom_site_type_symbol
_atom_site_fract_x
_atom_site_fract_y
_atom_site_fract_z
_atom_site_charge
Cu	Cu	2.23674e-33	0.094635	0.094635	0.927
Cu	Cu	-4.68745e-34	0.125943	0.125943	0.925
O 	O 	0.02336	0.08109	0.11336	-0.358
O 	O 	0.02332	0.10686	0.13976	-0.377
O 	O 	2.60058e-34	0.06936	0.06936	-0.18
O 	O 	-3.19721e-33	0.15112	0.15112	-0.213
C 	C 	0.03068	0.08834	0.13304	0.341
C 	C 	0.04935	0.07797	0.14192	-0.107
C 	C 	0.05733	0.08587	0.16238	-0.006
H 	H 	0.0506	0.0986	0.1691	0.057
C 	C 	0.0918	0.1195	0.2397	-0.089
H 	H 	0.0798	0.1266	0.2322	0.068
C 	C 	0.1004	0.1281	0.2599	-0.028
H 	H 	0.0941	0.1412	0.2664	0.044
C 	C 	0.05957	0.05957	0.13253	0.056
H 	H 	0.0537	0.0537	0.119	0.057
C 	C 	0.07521	0.07521	0.17303	0
C 	C 	0.08428	0.08428	0.1936	0.006
C 	C 	0.09141	0.09141	0.2098	-0.033
C 	C 	0.10107	0.10107	0.2318	0.066
C 	C 	0.11774	0.11774	0.27	0.001
C 	C 	0.12742	0.12742	0.2906	0.018
C 	C 	0.13566	0.13566	0.3081	-0.083
C 	C 	0.14475	0.14475	0.3275	0.178
C 	C 	0.136	0.16402	0.33598	-0.234
H 	H 	0.124	0.1714	0.3286	0.115
Cu	Cu	0.905365	0	0.094635	0.927
Cu	Cu	0.874057	0	0.125943	0.925
O 	O 	0.91891	0.02336	0.11336	-0.358
O 	O 	0.89314	0.02332	0.13976	-0.377
O 	O 	0.93064	0	0.06936	-0.18
O 	O 	0.84888	0	0.15112	-0.213
C 	C 	0.91166	0.03068	0.13304	0.341
C 	C 	0.92203	0.04935	0.14192	-0.107
C 	C 	0.91413	0.05733	0.16238	-0.006
H 	H 	0.9014	0.0506	0.1691	0.057
C 	C 	0.8805	0.0918	0.2397	-0.089
H 	H 	0.8734	0.0798	0.2322	0.068
C 	C 	0.8719	0.1004	0.2599	-0.028
H 	H 	0.8588	0.0941	0.2664	0.044
C 	C 	0.94043	0.05957	0.13253	0.056
H 	H 	0.9463	0.0537	0.119	0.057
C 	C 	0.92479	0.07521	0.17303	0
C 	C 	0.91572	0.08428	0.1936	0.006
C 	C 	0.90859	0.09141	0.2098	-0.033
C 	C 	0.89893	0.10107	0.2318	0.066
C 	C 	0.88226	0.11774	0.27	0.001
C 	C 	0.87258	0.12742	0.2906	0.018
C 	C 	0.86434	0.13566	0.3081	-0.083
C 	C 	0.85525	0.14475	0.3275	0.178
C 	C 	0.83598	0.136	0.33598	-0.234
H 	H 	0.8286	0.124	0.3286	0.115
Cu	Cu	-1.52709e-33	0.905365	0.094635	0.927
Cu	Cu	4.23603e-33	0.874057	0.125943	0.925
O 	O 	0.97664	0.91891	0.11336	-0.358
O 	O 	0.97668	0.89314	0.13976	-0.377
O 	O 	-1.62185e-33	0.93064	0.06936	-0.18
O 	O 	5.66609e-34	0.84888	0.15112	-0.213
C 	C 	0.96932	0.91166	0.13304	0.341
C 	C 	0.95065	0.92203	0.14192	-0.107
C 	C 	0.94267	0.91413	0.16238	-0.006
H 	H 	0.9494	0.9014	0.1691	0.057
C 	C 	0.9082	0.8805	0.2397	-0.089
H 	H 	0.9202	0.8734	0.2322	0.068
C 	C 	0.8996	0.8719	0.2599	-0.028
H 	H 	0.9059	0.8588	0.2664	0.044
C 	C 	0.94043	0.94043	0.13253	0.056
H 	H 	0.9463	0.9463	0.119	0.057
C 	C 	0.92479	0.92479	0.17303	0
C 	C 	0.91572	0.91572	0.1936	0.006
C 	C 	0.90859	0.90859	0.2098	-0.033
C 	C 	0.89893	0.89893	0.2318	0.066
C 	C 	0.88226	0.88226	0.27	0.001
C 	C 	0.87258	0.87258	0.2906	0.018
C 	C 	0.86434	0.86434	0.3081	-0.083
C 	C 	0.85525	0.85525	0.3275	0.179
C 	C 	0.864	0.83598	0.33598	-0.233
H 	H 	0.876	0.8286	0.3286	0.116
Cu	Cu	0.094635	0	0.094635	0.928
Cu	Cu	0.125943	0	0.125943	0.926
O 	O 	0.08109	0.97664	0.11336	-0.357
O 	O 	0.10686	0.97668	0.13976	-0.376
O 	O 	0.06936	0	0.06936	-0.179
O 	O 	0.15112	0	0.15112	-0.212
C 	C 	0.08834	0.96932	0.13304	0.342
C 	C 	0.07797	0.95065	0.14192	-0.106
C 	C 	0.08587	0.94267	0.16238	-0.005
H 	H 	0.0986	0.9494	0.1691	0.058
C 	C 	0.1195	0.9082	0.2397	-0.088
H 	H 	0.1266	0.9202	0.2322	0.069
C 	C 	0.1281	0.8996	0.2599	-0.027
H 	H 	0.1412	0.9059	0.2664	0.045
C 	C 	0.05957	0.94043	0.13253	0.057
H 	H 	0.0537	0.9463	0.119	0.058
C 	C 	0.07521	0.92479	0.17303	0.001
C 	C 	0.08428	0.91572	0.1936	0.007
C 	C 	0.09141	0.90859	0.2098	-0.032
C 	C 	0.10107	0.89893	0.2318	0.067
C 	C 	0.11774	0.88226	0.27	0.002
C 	C 	0.12742	0.87258	0.2906	0.019
C 	C 	0.13566	0.86434	0.3081	-0.082
C 	C 	0.14475	0.85525	0.3275	0.179
C 	C 	0.16402	0.864	0.33598	-0.233
H 	H 	0.1714	0.876	0.3286	0.116
Cu	Cu	-1.16607e-32	0.905365	0.905365	0.928
Cu	Cu	3.27719e-33	0.874057	0.874057	0.926
O 	O 	0.02336	0.91891	0.88664	-0.357
O 	O 	0.02332	0.89314	0.86024	-0.376
O 	O 	3.48934e-33	0.93064	0.93064	-0.178
O 	O 	-1.18725e-32	0.84888	0.84888	-0.212
C 	C 	0.03068	0.91166	0.86696	0.342
C 	C 	0.04935	0.92203	0.85808	-0.106
C 	C 	0.05733	0.91413	0.83762	-0.005
H 	H 	0.0506	0.9014	0.8309	0.058
C 	C 	0.0918	0.8805	0.7603	-0.088
H 	H 	0.0798	0.8734	0.7678	0.069
C 	C 	0.1004	0.8719	0.7401	-0.027
H 	H 	0.0941	0.8588	0.7336	0.045
C 	C 	0.05957	0.94043	0.86747	0.057
H 	H 	0.0537	0.9463	0.881	0.058
C 	C 	0.07521	0.92479	0.82697	0.001
C 	C 	0.08428	0.91572	0.8064	0.007
C 	C 	0.09141	0.90859	0.7902	-0.032
C 	C 	0.10107	0.89893	0.7682	0.067
C 	C 	0.11774	0.88226	0.73	0.002
C 	C 	0.12742	0.87258	0.7094	0.019
C 	C 	0.13566	0.86434	0.6919	-0.082
C 	C 	0.14475	0.85525	0.6725	0.179
C 	C 	0.136	0.83598	0.66402	-0.233
H 	H 	0.124	0.8286	0.6714	0.116
Cu	Cu	0.094635	-7.52764e-33	0.905365	0.928
Cu	Cu	0.125943	0	0.874057	0.926
O 	O 	0.08109	0.02336	0.88664	-0.357
O 	O 	0.10686	0.02332	0.86024	-0.376
O 	O 	0.06936	0	0.93064	-0.179
O 	O 	0.15112	-7.52764e-33	0.84888	-0.212
C 	C 	0.08834	0.03068	0.86696	0.342
C 	C 	0.07797	0.04935	0.85808	-0.106
C 	C 	0.08587	0.05733	0.83762	-0.005
H 	H 	0.0986	0.0506	0.8309	0.058
C 	C 	0.1195	0.0918	0.7603	-0.088
H 	H 	0.1266	0.0798	0.7678	0.069
C 	C 	0.1281	0.1004	0.7401	-0.027
H 	H 	0.1412	0.0941	0.7336	0.045
C 	C 	0.05957	0.05957	0.86747	0.057
H 	H 	0.0537	0.0537	0.881	0.058
C 	C 	0.07521	0.07521	0.82697	0.001
C 	C 	0.08428	0.08428	0.8064	0.007
C 	C 	0.09141	0.09141	0.7902	-0.032
C 	C 	0.10107	0.10107	0.7682	0.067
C 	C 	0.11774	0.11774	0.73	0.002
C 	C 	0.12742	0.12742	0.7094	0.019
C 	C 	0.13566	0.13566	0.6919	-0.082
C 	C 	0.14475	0.14475	0.6725	0.179
C 	C 	0.16402	0.136	0.66402	-0.233
H 	H 	0.1714	0.124	0.6714	0.116
Cu	Cu	-4.13307e-33	0.094635	0.905365	0.928
Cu	Cu	3.27719e-33	0.125943	0.874057	0.926
O 	O 	0.97664	0.08109	0.88664	-0.357
O 	O 	0.97668	0.10686	0.86024	-0.376
O 	O 	-4.0383e-33	0.06936	0.93064	-0.179
O 	O 	-4.34485e-33	0.15112	0.84888	-0.212
C 	C 	0.96932	0.08834	0.86696	0.342
C 	C 	0.95065	0.07797	0.85808	-0.106
C 	C 	0.94267	0.08587	0.83762	-0.005
H 	H 	0.9494	0.0986	0.8309	0.058
C 	C 	0.9082	0.1195	0.7603	-0.088
H 	H 	0.9202	0.1266	0.7678	0.069
C 	C 	0.8996	0.1281	0.7401	-0.027
H 	H 	0.9059	0.1412	0.7336	0.045
C 	C 	0.94043	0.05957	0.86747	0.057
H 	H 	0.9463	0.0537	0.881	0.058
C 	C 	0.92479	0.07521	0.82697	0.001
C 	C 	0.91572	0.08428	0.8064	0.007
C 	C 	0.90859	0.09141	0.7902	-0.032
C 	C 	0.89893	0.10107	0.7682	0.067
C 	C 	0.88226	0.11774	0.73	0.002
C 	C 	0.87258	0.12742	0.7094	0.019
C 	C 	0.86434	0.13566	0.6919	-0.082
C 	C 	0.85525	0.14475	0.6725	0.179
C 	C 	0.864	0.16402	0.66402	-0.233
H 	H 	0.876	0.1714	0.6714	0.116
Cu	Cu	0.905365	-7.52764e-33	0.905365	0.928
Cu	Cu	0.874057	0	0.874057	0.926
O 	O 	0.91891	0.97664	0.88664	-0.357
O 	O 	0.89314	0.97668	0.86024	-0.376
O 	O 	0.93064	0	0.93064	-0.178
O 	O 	0.84888	-7.52764e-33	0.84888	-0.212
C 	C 	0.91166	0.96932	0.86696	0.342
C 	C 	0.92203	0.95065	0.85808	-0.106
C 	C 	0.91413	0.94267	0.83762	-0.005
H 	H 	0.9014	0.9494	0.8309	0.058
C 	C 	0.8805	0.9082	0.7603	-0.088
H 	H 	0.8734	0.9202	0.7678	0.069
C 	C 	0.8719	0.8996	0.7401	-0.027
H 	H 	0.8588	0.9059	0.7336	0.045
C 	C 	0.94043	0.94043	0.86747	0.057
H 	H 	0.9463	0.9463	0.881	0.058
C 	C 	0.92479	0.92479	0.82697	0.001
C 	C 	0.91572	0.91572	0.8064	0.007
C 	C 	0.90859	0.90859	0.7902	-0.032
C 	C 	0.89893	0.89893	0.7682	0.067
C 	C 	0.88226	0.88226	0.73	0.002
C 	C 	0.87258	0.87258	0.7094	0.019
C 	C 	0.86434	0.86434	0.6919	-0.082
C 	C 	0.85525	0.85525	0.6725	0.179
C 	C 	0.83598	0.864	0.66402	-0.233
H 	H 	0.8286	0.876	0.6714	0.116
O 	O 	0.11336	0.02336	0.08109	-0.357
O 	O 	0.13976	0.02332	0.10686	-0.376
C 	C 	0.13304	0.03068	0.08834	0.342
C 	C 	0.14192	0.04935	0.07797	-0.106
C 	C 	0.16238	0.05733	0.08587	-0.005
H 	H 	0.1691	0.0506	0.0986	0.058
C 	C 	0.2397	0.0918	0.1195	-0.088
H 	H 	0.2322	0.0798	0.1266	0.069
C 	C 	0.2599	0.1004	0.1281	-0.027
H 	H 	0.2664	0.0941	0.1412	0.045
C 	C 	0.13253	0.05957	0.05957	0.057
H 	H 	0.119	0.0537	0.0537	0.058
C 	C 	0.17303	0.07521	0.07521	0.001
C 	C 	0.1936	0.08428	0.08428	0.007
C 	C 	0.2098	0.09141	0.09141	-0.032
C 	C 	0.2318	0.10107	0.10107	0.067
C 	C 	0.27	0.11774	0.11774	0.002
C 	C 	0.2906	0.12742	0.12742	0.019
C 	C 	0.3081	0.13566	0.13566	-0.082
C 	C 	0.3275	0.14475	0.14475	0.179
C 	C 	0.33598	0.136	0.16402	-0.233
H 	H 	0.3286	0.124	0.1714	0.116
O 	O 	0.97664	0.11336	0.08109	-0.357
O 	O 	0.97668	0.13976	0.10686	-0.376
C 	C 	0.96932	0.13304	0.08834	0.342
C 	C 	0.95065	0.14192	0.07797	-0.106
C 	C 	0.94267	0.16238	0.08587	-0.005
H 	H 	0.9494	0.1691	0.0986	0.058
C 	C 	0.9082	0.2397	0.1195	-0.088
H 	H 	0.9202	0.2322	0.1266	0.069
C 	C 	0.8996	0.2599	0.1281	-0.027
H 	H 	0.9059	0.2664	0.1412	0.045
C 	C 	0.94043	0.13253	0.05957	0.057
H 	H 	0.9463	0.119	0.0537	0.058
C 	C 	0.92479	0.17303	0.07521	0.001
C 	C 	0.91572	0.1936	0.08428	0.007
C 	C 	0.90859	0.2098	0.09141	-0.032
C 	C 	0.89893	0.2318	0.10107	0.067
C 	C 	0.88226	0.27	0.11774	0.002
C 	C 	0.87258	0.2906	0.12742	0.019
C 	C 	0.86434	0.3081	0.13566	-0.082
C 	C 	0.85525	0.3275	0.14475	0.179
C 	C 	0.864	0.33598	0.16402	-0.233
H 	H 	0.876	0.3286	0.1714	0.116
O 	O 	0.88664	0.97664	0.08109	-0.357
O 	O 	0.86024	0.97668	0.10686	-0.376
C 	C 	0.86696	0.96932	0.08834	0.342
C 	C 	0.85808	0.95065	0.07797	-0.106
C 	C 	0.83762	0.94267	0.08587	-0.005
H 	H 	0.8309	0.9494	0.0986	0.058
C 	C 	0.7603	0.9082	0.1195	-0.088
H 	H 	0.7678	0.9202	0.1266	0.069
C 	C 	0.7401	0.8996	0.1281	-0.027
H 	H 	0.7336	0.9059	0.1412	0.045
C 	C 	0.86747	0.94043	0.05957	0.057
H 	H 	0.881	0.9463	0.0537	0.058
C 	C 	0.82697	0.92479	0.07521	0.001
C 	C 	0.8064	0.91572	0.08428	0.007
C 	C 	0.7902	0.90859	0.09141	-0.032
C 	C 	0.7682	0.89893	0.10107	0.067
C 	C 	0.73	0.88226	0.11774	0.002
C 	C 	0.7094	0.87258	0.12742	0.019
C 	C 	0.6919	0.86434	0.13566	-0.082
C 	C 	0.6725	0.85525	0.14475	0.179
C 	C 	0.66402	0.864	0.16402	-0.233
H 	H 	0.6714	0.876	0.1714	0.116
O 	O 	0.02336	0.88664	0.08109	-0.357
O 	O 	0.02332	0.86024	0.10686	-0.376
C 	C 	0.03068	0.86696	0.08834	0.342
C 	C 	0.04935	0.85808	0.07797	-0.106
C 	C 	0.05733	0.83762	0.08587	-0.005
H 	H 	0.0506	0.8309	0.0986	0.058
C 	C 	0.0918	0.7603	0.1195	-0.088
H 	H 	0.0798	0.7678	0.1266	0.069
C 	C 	0.1004	0.7401	0.1281	-0.027
H 	H 	0.0941	0.7336	0.1412	0.045
C 	C 	0.05957	0.86747	0.05957	0.057
H 	H 	0.0537	0.881	0.0537	0.058
C 	C 	0.07521	0.82697	0.07521	0.001
C 	C 	0.08428	0.8064	0.08428	0.007
C 	C 	0.09141	0.7902	0.09141	-0.032
C 	C 	0.10107	0.7682	0.10107	0.067
C 	C 	0.11774	0.73	0.11774	0.002
C 	C 	0.12742	0.7094	0.12742	0.019
C 	C 	0.13566	0.6919	0.13566	-0.082
C 	C 	0.14475	0.6725	0.14475	0.179
C 	C 	0.136	0.66402	0.16402	-0.233
H 	H 	0.124	0.6714	0.1714	0.116
O 	O 	0.11336	0.97664	0.91891	-0.357
O 	O 	0.13976	0.97668	0.89314	-0.376
C 	C 	0.13304	0.96932	0.91166	0.342
C 	C 	0.14192	0.95065	0.92203	-0.106
C 	C 	0.16238	0.94267	0.91413	-0.005
H 	H 	0.1691	0.9494	0.9014	0.058
C 	C 	0.2397	0.9082	0.8805	-0.088
H 	H 	0.2322	0.9202	0.8734	0.069
C 	C 	0.2599	0.8996	0.8719	-0.027
H 	H 	0.2664	0.9059	0.8588	0.045
C 	C 	0.13253	0.94043	0.94043	0.057
H 	H 	0.119	0.9463	0.9463	0.058
C 	C 	0.17303	0.92479	0.92479	0.001
C 	C 	0.1936	0.91572	0.91572	0.007
C 	C 	0.2098	0.90859	0.90859	-0.032
C 	C 	0.2318	0.89893	0.89893	0.067
C 	C 	0.27	0.88226	0.88226	0.002
C 	C 	0.2906	0.87258	0.87258	0.019
C 	C 	0.3081	0.86434	0.86434	-0.082
C 	C 	0.3275	0.85525	0.85525	0.179
C 	C 	0.33598	0.864	0.83598	-0.233
H 	H 	0.3286	0.876	0.8286	0.116
O 	O 	0.02336	0.11336	0.91891	-0.357
O 	O 	0.02332	0.13976	0.89314	-0.376
C 	C 	0.03068	0.13304	0.91166	0.342
C 	C 	0.04935	0.14192	0.92203	-0.106
C 	C 	0.05733	0.16238	0.91413	-0.005
H 	H 	0.0506	0.1691	0.9014	0.058
C 	C 	0.0918	0.2397	0.8805	-0.088
H 	H 	0.0798	0.2322	0.8734	0.069
C 	C 	0.1004	0.2599	0.8719	-0.027
H 	H 	0.0941	0.2664	0.8588	0.045
C 	C 	0.05957	0.13253	0.94043	0.057
H 	H 	0.0537	0.119	0.9463	0.058
C 	C 	0.07521	0.17303	0.92479	0.001
C 	C 	0.08428	0.1936	0.91572	0.007
C 	C 	0.09141	0.2098	0.90859	-0.032
C 	C 	0.10107	0.2318	0.89893	0.067
C 	C 	0.11774	0.27	0.88226	0.002
C 	C 	0.12742	0.2906	0.87258	0.019
C 	C 	0.13566	0.3081	0.86434	-0.082
C 	C 	0.14475	0.3275	0.85525	0.179
C 	C 	0.136	0.33598	0.83598	-0.233
H 	H 	0.124	0.3286	0.8286	0.116
O 	O 	0.88664	0.02336	0.91891	-0.357
O 	O 	0.86024	0.02332	0.89314	-0.376
C 	C 	0.86696	0.03068	0.91166	0.342
C 	C 	0.85808	0.04935	0.92203	-0.106
C 	C 	0.83762	0.05733	0.91413	-0.005
H 	H 	0.8309	0.0506	0.9014	0.058
C 	C 	0.7603	0.0918	0.8805	-0.088
H 	H 	0.7678	0.0798	0.8734	0.069
C 	C 	0.7401	0.1004	0.8719	-0.027
H 	H 	0.7336	0.0941	0.8588	0.045
C 	C 	0.86747	0.05957	0.94043	0.057
H 	H 	0.881	0.0537	0.9463	0.058
C 	C 	0.82697	0.07521	0.92479	0.001
C 	C 	0.8064	0.08428	0.91572	0.007
C 	C 	0.7902	0.09141	0.90859	-0.032
C 	C 	0.7682	0.10107	0.89893	0.067
C 	C 	0.73	0.11774	0.88226	0.002
C 	C 	0.7094	0.12742	0.87258	0.019
C 	C 	0.6919	0.13566	0.86434	-0.082
C 	C 	0.6725	0.14475	0.85525	0.179
C 	C 	0.66402	0.136	0.83598	-0.233
H 	H 	0.6714	0.124	0.8286	0.116
O 	O 	0.97664	0.88664	0.91891	-0.357
O 	O 	0.97668	0.86024	0.89314	-0.376
C 	C 	0.96932	0.86696	0.91166	0.342
C 	C 	0.95065	0.85808	0.92203	-0.106
C 	C 	0.94267	0.83762	0.91413	-0.005
H 	H 	0.9494	0.8309	0.9014	0.058
C 	C 	0.9082	0.7603	0.8805	-0.088
H 	H 	0.9202	0.7678	0.8734	0.069
C 	C 	0.8996	0.7401	0.8719	-0.027
H 	H 	0.9059	0.7336	0.8588	0.045
C 	C 	0.94043	0.86747	0.94043	0.057
H 	H 	0.9463	0.881	0.9463	0.058
C 	C 	0.92479	0.82697	0.92479	0.001
C 	C 	0.91572	0.8064	0.91572	0.007
C 	C 	0.90859	0.7902	0.90859	-0.032
C 	C 	0.89893	0.7682	0.89893	0.067
C 	C 	0.88226	0.73	0.88226	0.002
C 	C 	0.87258	0.7094	0.87258	0.019
C 	C 	0.86434	0.6919	0.86434	-0.082
C 	C 	0.85525	0.6725	0.85525	0.179
C 	C 	0.864	0.66402	0.83598	-0.233
H 	H 	0.876	0.6714	0.8286	0.116
Cu	Cu	0.094635	0.094635	-0	0.928
Cu	Cu	0.125943	0.125943	-0	0.926
O 	O 	0.08109	0.11336	0.02336	-0.357
O 	O 	0.10686	0.13976	0.02332	-0.376
O 	O 	0.06936	0.06936	-0	-0.179
O 	O 	0.15112	0.15112	-0	-0.212
C 	C 	0.08834	0.13304	0.03068	0.342
C 	C 	0.07797	0.14192	0.04935	-0.106
C 	C 	0.08587	0.16238	0.05733	-0.005
H 	H 	0.0986	0.1691	0.0506	0.058
C 	C 	0.1195	0.2397	0.0918	-0.088
H 	H 	0.1266	0.2322	0.0798	0.069
C 	C 	0.1281	0.2599	0.1004	-0.027
H 	H 	0.1412	0.2664	0.0941	0.045
C 	C 	0.05957	0.13253	0.05957	0.057
H 	H 	0.0537	0.119	0.0537	0.058
C 	C 	0.07521	0.17303	0.07521	0.001
C 	C 	0.08428	0.1936	0.08428	0.007
C 	C 	0.09141	0.2098	0.09141	-0.032
C 	C 	0.10107	0.2318	0.10107	0.067
C 	C 	0.11774	0.27	0.11774	0.002
C 	C 	0.12742	0.2906	0.12742	0.019
C 	C 	0.13566	0.3081	0.13566	-0.082
C 	C 	0.14475	0.3275	0.14475	0.179
C 	C 	0.16402	0.33598	0.136	-0.233
H 	H 	0.1714	0.3286	0.124	0.116
Cu	Cu	0.094635	0.905365	-0	0.928
Cu	Cu	0.125943	0.874057	-0	0.926
O 	O 	0.08109	0.88664	0.97664	-0.357
O 	O 	0.10686	0.86024	0.97668	-0.376
O 	O 	0.06936	0.93064	-0	-0.179
O 	O 	0.15112	0.84888	-0	-0.212
C 	C 	0.08834	0.86696	0.96932	0.342
C 	C 	0.07797	0.85808	0.95065	-0.106
C 	C 	0.08587	0.83762	0.94267	-0.005
H 	H 	0.0986	0.8309	0.9494	0.058
C 	C 	0.1195	0.7603	0.9082	-0.088
H 	H 	0.1266	0.7678	0.9202	0.069
C 	C 	0.1281	0.7401	0.8996	-0.027
H 	H 	0.1412	0.7336	0.9059	0.045
C 	C 	0.05957	0.86747	0.94043	0.057
H 	H 	0.0537	0.881	0.9463	0.058
C 	C 	0.07521	0.82697	0.92479	0.001
C 	C 	0.08428	0.8064	0.91572	0.007
C 	C 	0.09141	0.7902	0.90859	-0.032
C 	C 	0.10107	0.7682	0.89893	0.067
C 	C 	0.11774	0.73	0.88226	0.002
C 	C 	0.12742	0.7094	0.87258	0.019
C 	C 	0.13566	0.6919	0.86434	-0.082
C 	C 	0.14475	0.6725	0.85525	0.179
C 	C 	0.16402	0.66402	0.864	-0.233
H 	H 	0.1714	0.6714	0.876	0.116
O 	O 	0.11336	0.08109	0.97664	-0.357
O 	O 	0.13976	0.10686	0.97668	-0.376
C 	C 	0.13304	0.08834	0.96932	0.342
C 	C 	0.14192	0.07797	0.95065	-0.106
C 	C 	0.16238	0.08587	0.94267	-0.005
H 	H 	0.1691	0.0986	0.9494	0.058
C 	C 	0.2397	0.1195	0.9082	-0.088
H 	H 	0.2322	0.1266	0.9202	0.069
C 	C 	0.2599	0.1281	0.8996	-0.027
H 	H 	0.2664	0.1412	0.9059	0.045
C 	C 	0.13253	0.05957	0.94043	0.057
H 	H 	0.119	0.0537	0.9463	0.058
C 	C 	0.17303	0.07521	0.92479	0.001
C 	C 	0.1936	0.08428	0.91572	0.007
C 	C 	0.2098	0.09141	0.90859	-0.032
C 	C 	0.2318	0.10107	0.89893	0.067
C 	C 	0.27	0.11774	0.88226	0.002
C 	C 	0.2906	0.12742	0.87258	0.019
C 	C 	0.3081	0.13566	0.86434	-0.082
C 	C 	0.3275	0.14475	0.85525	0.179
C 	C 	0.33598	0.16402	0.864	-0.233
H 	H 	0.3286	0.1714	0.876	0.116
Cu	Cu	0.905365	0.094635	-0	0.928
Cu	Cu	0.874057	0.125943	-0	0.926
O 	O 	0.91891	0.11336	0.97664	-0.357
O 	O 	0.89314	0.13976	0.97668	-0.376
O 	O 	0.93064	0.06936	-0	-0.179
O 	O 	0.84888	0.15112	-0	-0.212
C 	C 	0.91166	0.13304	0.96932	0.342
C 	C 	0.92203	0.14192	0.95065	-0.106
C 	C 	0.91413	0.16238	0.94267	-0.005
H 	H 	0.9014	0.1691	0.9494	0.058
C 	C 	0.8805	0.2397	0.9082	-0.088
H 	H 	0.8734	0.2322	0.9202	0.069
C 	C 	0.8719	0.2599	0.8996	-0.027
H 	H 	0.8588	0.2664	0.9059	0.045
C 	C 	0.94043	0.13253	0.94043	0.057
H 	H 	0.9463	0.119	0.9463	0.058
C 	C 	0.92479	0.17303	0.92479	0.001
C 	C 	0.91572	0.1936	0.91572	0.007
C 	C 	0.90859	0.2098	0.90859	-0.032
C 	C 	0.89893	0.2318	0.89893	0.067
C 	C 	0.88226	0.27	0.88226	0.002
C 	C 	0.87258	0.2906	0.87258	0.019
C 	C 	0.86434	0.3081	0.86434	-0.082
C 	C 	0.85525	0.3275	0.85525	0.179
C 	C 	0.83598	0.33598	0.864	-0.233
H 	H 	0.8286	0.3286	0.876	0.116
Cu	Cu	0.905365	0.905365	-0	0.928
Cu	Cu	0.874057	0.874057	-0	0.926
O 	O 	0.88664	0.91891	0.97664	-0.357
O 	O 	0.86024	0.89314	0.97668	-0.376
O 	O 	0.93064	0.93064	-0	-0.178
O 	O 	0.84888	0.84888	-0	-0.212
C 	C 	0.86696	0.91166	0.96932	0.342
C 	C 	0.85808	0.92203	0.95065	-0.106
C 	C 	0.83762	0.91413	0.94267	-0.005
H 	H 	0.8309	0.9014	0.9494	0.058
C 	C 	0.7603	0.8805	0.9082	-0.088
H 	H 	0.7678	0.8734	0.9202	0.069
C 	C 	0.7401	0.8719	0.8996	-0.027
H 	H 	0.7336	0.8588	0.9059	0.045
C 	C 	0.86747	0.94043	0.94043	0.057
H 	H 	0.881	0.9463	0.9463	0.058
C 	C 	0.82697	0.92479	0.92479	0.001
C 	C 	0.8064	0.91572	0.91572	0.007
C 	C 	0.7902	0.90859	0.90859	-0.032
C 	C 	0.7682	0.89893	0.89893	0.067
C 	C 	0.73	0.88226	0.88226	0.002
C 	C 	0.7094	0.87258	0.87258	0.019
C 	C 	0.6919	0.86434	0.86434	-0.082
C 	C 	0.6725	0.85525	0.85525	0.179
C 	C 	0.66402	0.83598	0.864	-0.233
H 	H 	0.6714	0.8286	0.876	0.116
O 	O 	0.91891	0.88664	0.02336	-0.357
O 	O 	0.89314	0.86024	0.02332	-0.376
C 	C 	0.91166	0.86696	0.03068	0.342
C 	C 	0.92203	0.85808	0.04935	-0.106
C 	C 	0.91413	0.83762	0.05733	-0.005
H 	H 	0.9014	0.8309	0.0506	0.058
C 	C 	0.8805	0.7603	0.0918	-0.088
H 	H 	0.8734	0.7678	0.0798	0.069
C 	C 	0.8719	0.7401	0.1004	-0.027
H 	H 	0.8588	0.7336	0.0941	0.045
C 	C 	0.94043	0.86747	0.05957	0.057
H 	H 	0.9463	0.881	0.0537	0.058
C 	C 	0.92479	0.82697	0.07521	0.001
C 	C 	0.91572	0.8064	0.08428	0.007
C 	C 	0.90859	0.7902	0.09141	-0.032
C 	C 	0.89893	0.7682	0.10107	0.067
C 	C 	0.88226	0.73	0.11774	0.002
C 	C 	0.87258	0.7094	0.12742	0.019
C 	C 	0.86434	0.6919	0.13566	-0.082
C 	C 	0.85525	0.6725	0.14475	0.179
C 	C 	0.83598	0.66402	0.136	-0.233
H 	H 	0.8286	0.6714	0.124	0.116
O 	O 	0.11336	0.91891	0.02336	-0.357
O 	O 	0.13976	0.89314	0.02332	-0.376
C 	C 	0.13304	0.91166	0.03068	0.342
C 	C 	0.14192	0.92203	0.04935	-0.106
C 	C 	0.16238	0.91413	0.05733	-0.005
H 	H 	0.1691	0.9014	0.0506	0.058
C 	C 	0.2397	0.8805	0.0918	-0.088
H 	H 	0.2322	0.8734	0.0798	0.069
C 	C 	0.2599	0.8719	0.1004	-0.027
H 	H 	0.2664	0.8588	0.0941	0.045
C 	C 	0.13253	0.94043	0.05957	0.057
H 	H 	0.119	0.9463	0.0537	0.058
C 	C 	0.17303	0.92479	0.07521	0.001
C 	C 	0.1936	0.91572	0.08428	0.007
C 	C 	0.2098	0.90859	0.09141	-0.032
C 	C 	0.2318	0.89893	0.10107	0.067
C 	C 	0.27	0.88226	0.11774	0.002
C 	C 	0.2906	0.87258	0.12742	0.019
C 	C 	0.3081	0.86434	0.13566	-0.082
C 	C 	0.3275	0.85525	0.14475	0.179
C 	C 	0.33598	0.83598	0.136	-0.233
H 	H 	0.3286	0.8286	0.124	0.116
O 	O 	0.88664	0.08109	0.02336	-0.357
O 	O 	0.86024	0.10686	0.02332	-0.376
C 	C 	0.86696	0.08834	0.03068	0.342
C 	C 	0.85808	0.07797	0.04935	-0.106
C 	C 	0.83762	0.08587	0.05733	-0.005
H 	H 	0.8309	0.0986	0.0506	0.058
C 	C 	0.7603	0.1195	0.0918	-0.088
H 	H 	0.7678	0.1266	0.0798	0.069
C 	C 	0.7401	0.1281	0.1004	-0.027
H 	H 	0.7336	0.1412	0.0941	0.045
C 	C 	0.86747	0.05957	0.05957	0.057
H 	H 	0.881	0.0537	0.0537	0.058
C 	C 	0.82697	0.07521	0.07521	0.001
C 	C 	0.8064	0.08428	0.08428	0.007
C 	C 	0.7902	0.09141	0.09141	-0.032
C 	C 	0.7682	0.10107	0.10107	0.067
C 	C 	0.73	0.11774	0.11774	0.002
C 	C 	0.7094	0.12742	0.12742	0.019
C 	C 	0.6919	0.13566	0.13566	-0.082
C 	C 	0.6725	0.14475	0.14475	0.179
C 	C 	0.66402	0.16402	0.136	-0.233
H 	H 	0.6714	0.1714	0.124	0.116
O 	O 	0.97664	0.91891	0.88664	-0.357
O 	O 	0.97668	0.89314	0.86024	-0.376
C 	C 	0.96932	0.91166	0.86696	0.342
C 	C 	0.95065	0.92203	0.85808	-0.106
C 	C 	0.94267	0.91413	0.83762	-0.005
H 	H 	0.9494	0.9014	0.8309	0.058
C 	C 	0.9082	0.8805	0.7603	-0.088
H 	H 	0.9202	0.8734	0.7678	0.069
C 	C 	0.8996	0.8719	0.7401	-0.027
H 	H 	0.9059	0.8588	0.7336	0.045
C 	C 	0.864	0.83598	0.66402	-0.233
H 	H 	0.876	0.8286	0.6714	0.116
O 	O 	0.08109	0.97664	0.88664	-0.357
O 	O 	0.10686	0.97668	0.86024	-0.376
C 	C 	0.08834	0.96932	0.86696	0.342
C 	C 	0.07797	0.95065	0.85808	-0.106
C 	C 	0.08587	0.94267	0.83762	-0.005
H 	H 	0.0986	0.9494	0.8309	0.058
C 	C 	0.1195	0.9082	0.7603	-0.088
H 	H 	0.1266	0.9202	0.7678	0.069
C 	C 	0.1281	0.8996	0.7401	-0.027
H 	H 	0.1412	0.9059	0.7336	0.045
C 	C 	0.16402	0.864	0.66402	-0.233
H 	H 	0.1714	0.876	0.6714	0.116
O 	O 	0.02336	0.08109	0.88664	-0.357
O 	O 	0.02332	0.10686	0.86024	-0.376
C 	C 	0.03068	0.08834	0.86696	0.342
C 	C 	0.04935	0.07797	0.85808	-0.106
C 	C 	0.05733	0.08587	0.83762	-0.005
H 	H 	0.0506	0.0986	0.8309	0.058
C 	C 	0.0918	0.1195	0.7603	-0.088
H 	H 	0.0798	0.1266	0.7678	0.069
C 	C 	0.1004	0.1281	0.7401	-0.027
H 	H 	0.0941	0.1412	0.7336	0.045
C 	C 	0.136	0.16402	0.66402	-0.233
H 	H 	0.124	0.1714	0.6714	0.116
O 	O 	0.91891	0.02336	0.88664	-0.357
O 	O 	0.89314	0.02332	0.86024	-0.376
C 	C 	0.91166	0.03068	0.86696	0.342
C 	C 	0.92203	0.04935	0.85808	-0.106
C 	C 	0.91413	0.05733	0.83762	-0.005
H 	H 	0.9014	0.0506	0.8309	0.058
C 	C 	0.8805	0.0918	0.7603	-0.088
H 	H 	0.8734	0.0798	0.7678	0.069
C 	C 	0.8719	0.1004	0.7401	-0.027
H 	H 	0.8588	0.0941	0.7336	0.045
C 	C 	0.83598	0.136	0.66402	-0.233
H 	H 	0.8286	0.124	0.6714	0.116
O 	O 	0.97664	0.08109	0.11336	-0.357
O 	O 	0.97668	0.10686	0.13976	-0.376
C 	C 	0.96932	0.08834	0.13304	0.342
C 	C 	0.95065	0.07797	0.14192	-0.106
C 	C 	0.94267	0.08587	0.16238	-0.005
H 	H 	0.9494	0.0986	0.1691	0.058
C 	C 	0.9082	0.1195	0.2397	-0.088
H 	H 	0.9202	0.1266	0.2322	0.069
C 	C 	0.8996	0.1281	0.2599	-0.027
H 	H 	0.9059	0.1412	0.2664	0.045
C 	C 	0.864	0.16402	0.33598	-0.233
H 	H 	0.876	0.1714	0.3286	0.116
O 	O 	0.91891	0.97664	0.11336	-0.357
O 	O 	0.89314	0.97668	0.13976	-0.376
C 	C 	0.91166	0.96932	0.13304	0.342
C 	C 	0.92203	0.95065	0.14192	-0.106
C 	C 	0.91413	0.94267	0.16238	-0.005
H 	H 	0.9014	0.9494	0.1691	0.058
C 	C 	0.8805	0.9082	0.2397	-0.088
H 	H 	0.8734	0.9202	0.2322	0.069
C 	C 	0.8719	0.8996	0.2599	-0.027
H 	H 	0.8588	0.9059	0.2664	0.045
C 	C 	0.83598	0.864	0.33598	-0.233
H 	H 	0.8286	0.876	0.3286	0.116
O 	O 	0.02336	0.91891	0.11336	-0.357
O 	O 	0.02332	0.89314	0.13976	-0.376
C 	C 	0.03068	0.91166	0.13304	0.342
C 	C 	0.04935	0.92203	0.14192	-0.106
C 	C 	0.05733	0.91413	0.16238	-0.005
H 	H 	0.0506	0.9014	0.1691	0.058
C 	C 	0.0918	0.8805	0.2397	-0.088
H 	H 	0.0798	0.8734	0.2322	0.069
C 	C 	0.1004	0.8719	0.2599	-0.027
H 	H 	0.0941	0.8588	0.2664	0.045
C 	C 	0.136	0.83598	0.33598	-0.233
H 	H 	0.124	0.8286	0.3286	0.116
O 	O 	0.08109	0.02336	0.11336	-0.357
O 	O 	0.10686	0.02332	0.13976	-0.376
C 	C 	0.08834	0.03068	0.13304	0.342
C 	C 	0.07797	0.04935	0.14192	-0.106
C 	C 	0.08587	0.05733	0.16238	-0.005
H 	H 	0.0986	0.0506	0.1691	0.058
C 	C 	0.1195	0.0918	0.2397	-0.088
H 	H 	0.1266	0.0798	0.2322	0.069
C 	C 	0.1281	0.1004	0.2599	-0.027
H 	H 	0.1412	0.0941	0.2664	0.045
C 	C 	0.16402	0.136	0.33598	-0.233
H 	H 	0.1714	0.124	0.3286	0.116
O 	O 	0.88664	0.97664	0.91891	-0.357
O 	O 	0.86024	0.97668	0.89314	-0.376
C 	C 	0.86696	0.96932	0.91166	0.342
C 	C 	0.85808	0.95065	0.92203	-0.106
C 	C 	0.83762	0.94267	0.91413	-0.005
H 	H 	0.8309	0.9494	0.9014	0.058
C 	C 	0.7603	0.9082	0.8805	-0.088
H 	H 	0.7678	0.9202	0.8734	0.069
C 	C 	0.7401	0.8996	0.8719	-0.027
H 	H 	0.7336	0.9059	0.8588	0.045
C 	C 	0.66402	0.864	0.83598	-0.233
H 	H 	0.6714	0.876	0.8286	0.116
O 	O 	0.02336	0.88664	0.91891	-0.357
O 	O 	0.02332	0.86024	0.89314	-0.376
C 	C 	0.03068	0.86696	0.91166	0.342
C 	C 	0.04935	0.85808	0.92203	-0.106
C 	C 	0.05733	0.83762	0.91413	-0.005
H 	H 	0.0506	0.8309	0.9014	0.058
C 	C 	0.0918	0.7603	0.8805	-0.088
H 	H 	0.0798	0.7678	0.8734	0.069
C 	C 	0.1004	0.7401	0.8719	-0.027
H 	H 	0.0941	0.7336	0.8588	0.045
C 	C 	0.136	0.66402	0.83598	-0.233
H 	H 	0.124	0.6714	0.8286	0.116
O 	O 	0.11336	0.02336	0.91891	-0.357
O 	O 	0.13976	0.02332	0.89314	-0.376
C 	C 	0.13304	0.03068	0.91166	0.342
C 	C 	0.14192	0.04935	0.92203	-0.106
C 	C 	0.16238	0.05733	0.91413	-0.005
H 	H 	0.1691	0.0506	0.9014	0.058
C 	C 	0.2397	0.0918	0.8805	-0.088
H 	H 	0.2322	0.0798	0.8734	0.069
C 	C 	0.2599	0.1004	0.8719	-0.027
H 	H 	0.2664	0.0941	0.8588	0.045
C 	C 	0.33598	0.136	0.83598	-0.233
H 	H 	0.3286	0.124	0.8286	0.116
O 	O 	0.97664	0.11336	0.91891	-0.357
O 	O 	0.97668	0.13976	0.89314	-0.376
C 	C 	0.96932	0.13304	0.91166	0.342
C 	C 	0.95065	0.14192	0.92203	-0.106
C 	C 	0.94267	0.16238	0.91413	-0.005
H 	H 	0.9494	0.1691	0.9014	0.058
C 	C 	0.9082	0.2397	0.8805	-0.088
H 	H 	0.9202	0.2322	0.8734	0.069
C 	C 	0.8996	0.2599	0.8719	-0.027
H 	H 	0.9059	0.2664	0.8588	0.045
C 	C 	0.864	0.33598	0.83598	-0.233
H 	H 	0.876	0.3286	0.8286	0.116
O 	O 	0.88664	0.02336	0.08109	-0.357
O 	O 	0.86024	0.02332	0.10686	-0.376
C 	C 	0.86696	0.03068	0.08834	0.342
C 	C 	0.85808	0.04935	0.07797	-0.106
C 	C 	0.83762	0.05733	0.08587	-0.005
H 	H 	0.8309	0.0506	0.0986	0.058
C 	C 	0.7603	0.0918	0.1195	-0.088
H 	H 	0.7678	0.0798	0.1266	0.069
C 	C 	0.7401	0.1004	0.1281	-0.027
H 	H 	0.7336	0.0941	0.1412	0.045
C 	C 	0.66402	0.136	0.16402	-0.233
H 	H 	0.6714	0.124	0.1714	0.116
O 	O 	0.97664	0.88664	0.08109	-0.357
O 	O 	0.97668	0.86024	0.10686	-0.376
C 	C 	0.96932	0.86696	0.08834	0.342
C 	C 	0.95065	0.85808	0.07797	-0.106
C 	C 	0.94267	0.83762	0.08587	-0.005
H 	H 	0.9494	0.8309	0.0986	0.058
C 	C 	0.9082	0.7603	0.1195	-0.088
H 	H 	0.9202	0.7678	0.1266	0.069
C 	C 	0.8996	0.7401	0.1281	-0.027
H 	H 	0.9059	0.7336	0.1412	0.045
C 	C 	0.864	0.66402	0.16402	-0.233
H 	H 	0.876	0.6714	0.1714	0.116
O 	O 	0.11336	0.97664	0.08109	-0.357
O 	O 	0.13976	0.97668	0.10686	-0.376
C 	C 	0.13304	0.96932	0.08834	0.342
C 	C 	0.14192	0.95065	0.07797	-0.106
C 	C 	0.16238	0.94267	0.08587	-0.005
H 	H 	0.1691	0.9494	0.0986	0.058
C 	C 	0.2397	0.9082	0.1195	-0.088
H 	H 	0.2322	0.9202	0.1266	0.069
C 	C 	0.2599	0.8996	0.1281	-0.027
H 	H 	0.2664	0.9059	0.1412	0.045
C 	C 	0.33598	0.864	0.16402	-0.233
H 	H 	0.3286	0.876	0.1714	0.116
O 	O 	0.02336	0.11336	0.08109	-0.357
O 	O 	0.02332	0.13976	0.10686	-0.376
C 	C 	0.03068	0.13304	0.08834	0.342
C 	C 	0.04935	0.14192	0.07797	-0.106
C 	C 	0.05733	0.16238	0.08587	-0.005
H 	H 	0.0506	0.1691	0.0986	0.058
C 	C 	0.0918	0.2397	0.1195	-0.088
H 	H 	0.0798	0.2322	0.1266	0.069
C 	C 	0.1004	0.2599	0.1281	-0.027
H 	H 	0.0941	0.2664	0.1412	0.045
C 	C 	0.136	0.33598	0.16402	-0.233
H 	H 	0.124	0.3286	0.1714	0.116
O 	O 	0.91891	0.88664	0.97664	-0.357
O 	O 	0.89314	0.86024	0.97668	-0.376
C 	C 	0.91166	0.86696	0.96932	0.342
C 	C 	0.92203	0.85808	0.95065	-0.106
C 	C 	0.91413	0.83762	0.94267	-0.005
H 	H 	0.9014	0.8309	0.9494	0.058
C 	C 	0.8805	0.7603	0.9082	-0.088
H 	H 	0.8734	0.7678	0.9202	0.069
C 	C 	0.8719	0.7401	0.8996	-0.027
H 	H 	0.8588	0.7336	0.9059	0.045
C 	C 	0.83598	0.66402	0.864	-0.233
H 	H 	0.8286	0.6714	0.876	0.116
O 	O 	0.91891	0.11336	0.02336	-0.357
O 	O 	0.89314	0.13976	0.02332	-0.376
C 	C 	0.91166	0.13304	0.03068	0.342
C 	C 	0.92203	0.14192	0.04935	-0.106
C 	C 	0.91413	0.16238	0.05733	-0.005
H 	H 	0.9014	0.1691	0.0506	0.058
C 	C 	0.8805	0.2397	0.0918	-0.088
H 	H 	0.8734	0.2322	0.0798	0.069
C 	C 	0.8719	0.2599	0.1004	-0.027
H 	H 	0.8588	0.2664	0.0941	0.045
C 	C 	0.83598	0.33598	0.136	-0.233
H 	H 	0.8286	0.3286	0.124	0.116
O 	O 	0.88664	0.91891	0.02336	-0.357
O 	O 	0.86024	0.89314	0.02332	-0.376
C 	C 	0.86696	0.91166	0.03068	0.342
C 	C 	0.85808	0.92203	0.04935	-0.106
C 	C 	0.83762	0.91413	0.05733	-0.005
H 	H 	0.8309	0.9014	0.0506	0.058
C 	C 	0.7603	0.8805	0.0918	-0.088
H 	H 	0.7678	0.8734	0.0798	0.069
C 	C 	0.7401	0.8719	0.1004	-0.027
H 	H 	0.7336	0.8588	0.0941	0.045
C 	C 	0.66402	0.83598	0.136	-0.233
H 	H 	0.6714	0.8286	0.124	0.116
O 	O 	0.08109	0.88664	0.02336	-0.357
O 	O 	0.10686	0.86024	0.02332	-0.376
C 	C 	0.08834	0.86696	0.03068	0.342
C 	C 	0.07797	0.85808	0.04935	-0.106
C 	C 	0.08587	0.83762	0.05733	-0.005
H 	H 	0.0986	0.8309	0.0506	0.058
C 	C 	0.1195	0.7603	0.0918	-0.088
H 	H 	0.1266	0.7678	0.0798	0.069
C 	C 	0.1281	0.7401	0.1004	-0.027
H 	H 	0.1412	0.7336	0.0941	0.045
C 	C 	0.16402	0.66402	0.136	-0.233
H 	H 	0.1714	0.6714	0.124	0.116
O 	O 	0.11336	0.08109	0.02336	-0.357
O 	O 	0.13976	0.10686	0.02332	-0.376
C 	C 	0.13304	0.08834	0.03068	0.342
C 	C 	0.14192	0.07797	0.04935	-0.106
C 	C 	0.16238	0.08587	0.05733	-0.005
H 	H 	0.1691	0.0986	0.0506	0.058
C 	C 	0.2397	0.1195	0.0918	-0.088
H 	H 	0.2322	0.1266	0.0798	0.069
C 	C 	0.2599	0.1281	0.1004	-0.027
H 	H 	0.2664	0.1412	0.0941	0.045
C 	C 	0.33598	0.16402	0.136	-0.233
H 	H 	0.3286	0.1714	0.124	0.116
O 	O 	0.08109	0.11336	0.97664	-0.357
O 	O 	0.10686	0.13976	0.97668	-0.376
C 	C 	0.08834	0.13304	0.96932	0.342
C 	C 	0.07797	0.14192	0.95065	-0.106
C 	C 	0.08587	0.16238	0.94267	-0.005
H 	H 	0.0986	0.1691	0.9494	0.058
C 	C 	0.1195	0.2397	0.9082	-0.088
H 	H 	0.1266	0.2322	0.9202	0.069
C 	C 	0.1281	0.2599	0.8996	-0.027
H 	H 	0.1412	0.2664	0.9059	0.045
C 	C 	0.16402	0.33598	0.864	-0.233
H 	H 	0.1714	0.3286	0.876	0.116
O 	O 	0.88664	0.08109	0.97664	-0.357
O 	O 	0.86024	0.10686	0.97668	-0.376
C 	C 	0.86696	0.08834	0.96932	0.342
C 	C 	0.85808	0.07797	0.95065	-0.106
C 	C 	0.83762	0.08587	0.94267	-0.005
H 	H 	0.8309	0.0986	0.9494	0.058
C 	C 	0.7603	0.1195	0.9082	-0.088
H 	H 	0.7678	0.1266	0.9202	0.069
C 	C 	0.7401	0.1281	0.8996	-0.027
H 	H 	0.7336	0.1412	0.9059	0.045
C 	C 	0.66402	0.16402	0.864	-0.233
H 	H 	0.6714	0.1714	0.876	0.116
O 	O 	0.11336	0.91891	0.97664	-0.357
O 	O 	0.13976	0.89314	0.97668	-0.376
C 	C 	0.13304	0.91166	0.96932	0.342
C 	C 	0.14192	0.92203	0.95065	-0.106
C 	C 	0.16238	0.91413	0.94267	-0.005
H 	H 	0.1691	0.9014	0.9494	0.058
C 	C 	0.2397	0.8805	0.9082	-0.088
H 	H 	0.2322	0.8734	0.9202	0.069
C 	C 	0.2599	0.8719	0.8996	-0.027
H 	H 	0.2664	0.8588	0.9059	0.045
C 	C 	0.33598	0.83598	0.864	-0.233
H 	H 	0.3286	0.8286	0.876	0.116
Cu	Cu	2.22952e-33	0.594635	0.594635	0.928
Cu	Cu	2.34691e-33	0.625943	0.625943	0.926
O 	O 	0.02336	0.58109	0.61336	-0.357
O 	O 	0.02332	0.60686	0.63976	-0.376
O 	O 	2.13476e-33	0.56936	0.56936	-0.179
O 	O 	1.74966e-32	0.65112	0.65112	-0.212
C 	C 	0.03068	0.58834	0.63304	0.342
C 	C 	0.04935	0.57797	0.64192	-0.106
C 	C 	0.05733	0.58587	0.66238	-0.005
H 	H 	0.0506	0.5986	0.6691	0.058
C 	C 	0.0918	0.6195	0.7397	-0.088
H 	H 	0.0798	0.6266	0.7322	0.069
C 	C 	0.1004	0.6281	0.7599	-0.027
H 	H 	0.0941	0.6412	0.7664	0.045
C 	C 	0.05957	0.55957	0.63253	0.057
H 	H 	0.0537	0.5537	0.619	0.058
C 	C 	0.07521	0.57521	0.67303	0.001
C 	C 	0.08428	0.58428	0.6936	0.007
C 	C 	0.09141	0.59141	0.7098	-0.032
C 	C 	0.10107	0.60107	0.7318	0.067
C 	C 	0.11774	0.61774	0.77	0.002
C 	C 	0.12742	0.62742	0.7906	0.019
C 	C 	0.13566	0.63566	0.8081	-0.082
C 	C 	0.14475	0.64475	0.8275	0.179
Cu	Cu	0.905365	0.5	0.594635	0.928
Cu	Cu	0.874057	0.5	0.625943	0.926
O 	O 	0.91891	0.52336	0.61336	-0.357
O 	O 	0.89314	0.52332	0.63976	-0.376
O 	O 	0.93064	0.5	0.56936	-0.178
O 	O 	0.84888	0.5	0.65112	-0.212
C 	C 	0.91166	0.53068	0.63304	0.342
C 	C 	0.92203	0.54935	0.64192	-0.106
C 	C 	0.91413	0.55733	0.66238	-0.005
H 	H 	0.9014	0.5506	0.6691	0.058
C 	C 	0.8805	0.5918	0.7397	-0.088
H 	H 	0.8734	0.5798	0.7322	0.069
C 	C 	0.8719	0.6004	0.7599	-0.027
H 	H 	0.8588	0.5941	0.7664	0.045
C 	C 	0.94043	0.55957	0.63253	0.057
H 	H 	0.9463	0.5537	0.619	0.058
C 	C 	0.92479	0.57521	0.67303	0.001
C 	C 	0.91572	0.58428	0.6936	0.007
C 	C 	0.90859	0.59141	0.7098	-0.032
C 	C 	0.89893	0.60107	0.7318	0.067
C 	C 	0.88226	0.61774	0.77	0.002
C 	C 	0.87258	0.62742	0.7906	0.019
C 	C 	0.86434	0.63566	0.8081	-0.082
C 	C 	0.85525	0.64475	0.8275	0.179
C 	C 	0.83598	0.636	0.83598	-0.233
H 	H 	0.8286	0.624	0.8286	0.116
Cu	Cu	2.22952e-33	0.405365	0.594635	0.928
Cu	Cu	2.34691e-33	0.374057	0.625943	0.926
O 	O 	0.97664	0.41891	0.61336	-0.357
O 	O 	0.97668	0.39314	0.63976	-0.376
O 	O 	2.13476e-33	0.43064	0.56936	-0.179
O 	O 	2.44131e-33	0.34888	0.65112	-0.212
C 	C 	0.96932	0.41166	0.63304	0.342
C 	C 	0.95065	0.42203	0.64192	-0.106
C 	C 	0.94267	0.41413	0.66238	-0.005
H 	H 	0.9494	0.4014	0.6691	0.058
C 	C 	0.9082	0.3805	0.7397	-0.088
H 	H 	0.9202	0.3734	0.7322	0.069
C 	C 	0.8996	0.3719	0.7599	-0.027
H 	H 	0.9059	0.3588	0.7664	0.045
C 	C 	0.94043	0.44043	0.63253	0.057
H 	H 	0.9463	0.4463	0.619	0.058
C 	C 	0.92479	0.42479	0.67303	0.001
C 	C 	0.91572	0.41572	0.6936	0.007
C 	C 	0.90859	0.40859	0.7098	-0.032
C 	C 	0.89893	0.39893	0.7318	0.067
C 	C 	0.88226	0.38226	0.77	0.002
C 	C 	0.87258	0.37258	0.7906	0.019
C 	C 	0.86434	0.36434	0.8081	-0.082
C 	C 	0.85525	0.35525	0.8275	0.179
Cu	Cu	0.094635	0.5	0.594635	0.928
Cu	Cu	0.125943	0.5	0.625943	0.926
O 	O 	0.08109	0.47664	0.61336	-0.357
O 	O 	0.10686	0.47668	0.63976	-0.376
O 	O 	0.06936	0.5	0.56936	-0.178
O 	O 	0.15112	0.5	0.65112	-0.212
C 	C 	0.08834	0.46932	0.63304	0.342
C 	C 	0.07797	0.45065	0.64192	-0.106
C 	C 	0.08587	0.44267	0.66238	-0.005
H 	H 	0.0986	0.4494	0.6691	0.058
C 	C 	0.1195	0.4082	0.7397	-0.088
H 	H 	0.1266	0.4202	0.7322	0.069
C 	C 	0.1281	0.3996	0.7599	-0.027
H 	H 	0.1412	0.4059	0.7664	0.045
C 	C 	0.05957	0.44043	0.63253	0.057
H 	H 	0.0537	0.4463	0.619	0.058
C 	C 	0.07521	0.42479	0.67303	0.001
C 	C 	0.08428	0.41572	0.6936	0.007
C 	C 	0.09141	0.40859	0.7098	-0.032
C 	C 	0.10107	0.39893	0.7318	0.067
C 	C 	0.11774	0.38226	0.77	0.002
C 	C 	0.12742	0.37258	0.7906	0.019
C 	C 	0.13566	0.36434	0.8081	-0.082
C 	C 	0.14475	0.35525	0.8275	0.179
C 	C 	0.16402	0.364	0.83598	-0.233
H 	H 	0.1714	0.376	0.8286	0.116
Cu	Cu	9.04752e-33	0.405365	0.405365	0.928
Cu	Cu	1.40249e-33	0.374057	0.374057	0.926
O 	O 	0.02336	0.41891	0.38664	-0.357
O 	O 	0.02332	0.39314	0.36024	-0.376
O 	O 	-5.913e-33	0.43064	0.43064	-0.179
O 	O 	1.30809e-33	0.34888	0.34888	-0.212
C 	C 	0.03068	0.41166	0.36696	0.342
C 	C 	0.04935	0.42203	0.35808	-0.106
C 	C 	0.05733	0.41413	0.33762	-0.005
H 	H 	0.0506	0.4014	0.3309	0.058
C 	C 	0.0918	0.3805	0.2603	-0.088
H 	H 	0.0798	0.3734	0.2678	0.069
C 	C 	0.1004	0.3719	0.2401	-0.027
H 	H 	0.0941	0.3588	0.2336	0.045
C 	C 	0.05957	0.44043	0.36747	0.057
H 	H 	0.0537	0.4463	0.381	0.058
C 	C 	0.07521	0.42479	0.32697	0.001
C 	C 	0.08428	0.41572	0.3064	0.007
C 	C 	0.09141	0.40859	0.2902	-0.032
C 	C 	0.10107	0.39893	0.2682	0.067
C 	C 	0.11774	0.38226	0.23	0.002
C 	C 	0.12742	0.37258	0.2094	0.019
C 	C 	0.13566	0.36434	0.1919	-0.082
C 	C 	0.14475	0.35525	0.1725	0.179
Cu	Cu	0.094635	0.5	0.405365	0.928
Cu	Cu	0.125943	0.5	0.374057	0.926
O 	O 	0.08109	0.52336	0.38664	-0.357
O 	O 	0.10686	0.52332	0.36024	-0.376
O 	O 	0.06936	0.5	0.43064	-0.178
O 	O 	0.15112	0.5	0.34888	-0.212
C 	C 	0.08834	0.53068	0.36696	0.342
C 	C 	0.07797	0.54935	0.35808	-0.106
C 	C 	0.08587	0.55733	0.33762	-0.005
H 	H 	0.0986	0.5506	0.3309	0.058
C 	C 	0.1195	0.5918	0.2603	-0.088
H 	H 	0.1266	0.5798	0.2678	0.069
C 	C 	0.1281	0.6004	0.2401	-0.027
H 	H 	0.1412	0.5941	0.2336	0.045
C 	C 	0.05957	0.55957	0.36747	0.057
H 	H 	0.0537	0.5537	0.381	0.058
C 	C 	0.07521	0.57521	0.32697	0.001
C 	C 	0.08428	0.58428	0.3064	0.007
C 	C 	0.09141	0.59141	0.2902	-0.032
C 	C 	0.10107	0.60107	0.2682	0.067
C 	C 	0.11774	0.61774	0.23	0.002
C 	C 	0.12742	0.62742	0.2094	0.019
C 	C 	0.13566	0.63566	0.1919	-0.082
C 	C 	0.14475	0.64475	0.1725	0.179
C 	C 	0.16402	0.636	0.16402	-0.233
H 	H 	0.1714	0.624	0.1714	0.116
Cu	Cu	5.2837e-33	0.594635	0.405365	0.928
Cu	Cu	5.16631e-33	0.625943	0.374057	0.926
O 	O 	0.97664	0.58109	0.38664	-0.357
O 	O 	0.97668	0.60686	0.36024	-0.376
O 	O 	5.37846e-33	0.56936	0.43064	-0.179
O 	O 	1.30809e-33	0.65112	0.34888	-0.212
C 	C 	0.96932	0.58834	0.36696	0.342
C 	C 	0.95065	0.57797	0.35808	-0.106
C 	C 	0.94267	0.58587	0.33762	-0.005
H 	H 	0.9494	0.5986	0.3309	0.058
C 	C 	0.9082	0.6195	0.2603	-0.088
H 	H 	0.9202	0.6266	0.2678	0.069
C 	C 	0.8996	0.6281	0.2401	-0.027
H 	H 	0.9059	0.6412	0.2336	0.045
C 	C 	0.94043	0.55957	0.36747	0.057
H 	H 	0.9463	0.5537	0.381	0.058
C 	C 	0.92479	0.57521	0.32697	0.001
C 	C 	0.91572	0.58428	0.3064	0.007
C 	C 	0.90859	0.59141	0.2902	-0.032
C 	C 	0.89893	0.60107	0.2682	0.067
C 	C 	0.88226	0.61774	0.23	0.002
C 	C 	0.87258	0.62742	0.2094	0.019
C 	C 	0.86434	0.63566	0.1919	-0.082
C 	C 	0.85525	0.64475	0.1725	0.179
Cu	Cu	0.905365	0.5	0.405365	0.928
Cu	Cu	0.874057	0.5	0.374057	0.926
O 	O 	0.91891	0.47664	0.38664	-0.357
O 	O 	0.89314	0.47668	0.36024	-0.376
O 	O 	0.93064	0.5	0.43064	-0.178
O 	O 	0.84888	0.5	0.34888	-0.212
C 	C 	0.91166	0.46932	0.36696	0.342
C 	C 	0.92203	0.45065	0.35808	-0.106
C 	C 	0.91413	0.44267	0.33762	-0.005
H 	H 	0.9014	0.4494	0.3309	0.058
C 	C 	0.8805	0.4082	0.2603	-0.088
H 	H 	0.8734	0.4202	0.2678	0.069
C 	C 	0.8719	0.3996	0.2401	-0.027
H 	H 	0.8588	0.4059	0.2336	0.045
C 	C 	0.94043	0.44043	0.36747	0.057
H 	H 	0.9463	0.4463	0.381	0.058
C 	C 	0.92479	0.42479	0.32697	0.001
C 	C 	0.91572	0.41572	0.3064	0.007
C 	C 	0.90859	0.40859	0.2902	-0.032
C 	C 	0.89893	0.39893	0.2682	0.067
C 	C 	0.88226	0.38226	0.23	0.002
C 	C 	0.87258	0.37258	0.2094	0.019
C 	C 	0.86434	0.36434	0.1919	-0.082
C 	C 	0.85525	0.35525	0.1725	0.179
C 	C 	0.83598	0.364	0.16402	-0.233
H 	H 	0.8286	0.376	0.1714	0.116
O 	O 	0.11336	0.52336	0.58109	-0.357
O 	O 	0.13976	0.52332	0.60686	-0.376
C 	C 	0.13304	0.53068	0.58834	0.342
C 	C 	0.14192	0.54935	0.57797	-0.106
C 	C 	0.16238	0.55733	0.58587	-0.005
H 	H 	0.1691	0.5506	0.5986	0.058
C 	C 	0.2397	0.5918	0.6195	-0.088
H 	H 	0.2322	0.5798	0.6266	0.069
C 	C 	0.2599	0.6004	0.6281	-0.027
H 	H 	0.2664	0.5941	0.6412	0.045
C 	C 	0.13253	0.55957	0.55957	0.057
H 	H 	0.119	0.5537	0.5537	0.058
C 	C 	0.17303	0.57521	0.57521	0.001
C 	C 	0.1936	0.58428	0.58428	0.007
C 	C 	0.2098	0.59141	0.59141	-0.032
C 	C 	0.2318	0.60107	0.60107	0.067
C 	C 	0.27	0.61774	0.61774	0.002
C 	C 	0.2906	0.62742	0.62742	0.019
C 	C 	0.3081	0.63566	0.63566	-0.082
C 	C 	0.3275	0.64475	0.64475	0.179
C 	C 	0.33598	0.636	0.66402	-0.233
H 	H 	0.3286	0.624	0.6714	0.116
O 	O 	0.97664	0.61336	0.58109	-0.357
O 	O 	0.97668	0.63976	0.60686	-0.376
C 	C 	0.96932	0.63304	0.58834	0.342
C 	C 	0.95065	0.64192	0.57797	-0.106
C 	C 	0.94267	0.66238	0.58587	-0.005
H 	H 	0.9494	0.6691	0.5986	0.058
C 	C 	0.9082	0.7397	0.6195	-0.088
H 	H 	0.9202	0.7322	0.6266	0.069
C 	C 	0.8996	0.7599	0.6281	-0.027
H 	H 	0.9059	0.7664	0.6412	0.045
C 	C 	0.94043	0.63253	0.55957	0.057
H 	H 	0.9463	0.619	0.5537	0.058
C 	C 	0.92479	0.67303	0.57521	0.001
C 	C 	0.91572	0.6936	0.58428	0.007
C 	C 	0.90859	0.7098	0.59141	-0.032
C 	C 	0.89893	0.7318	0.60107	0.067
C 	C 	0.88226	0.77	0.61774	0.002
C 	C 	0.87258	0.7906	0.62742	0.019
C 	C 	0.86434	0.8081	0.63566	-0.082
C 	C 	0.85525	0.8275	0.64475	0.179
O 	O 	0.88664	0.47664	0.58109	-0.357
O 	O 	0.86024	0.47668	0.60686	-0.376
C 	C 	0.86696	0.46932	0.58834	0.342
C 	C 	0.85808	0.45065	0.57797	-0.106
C 	C 	0.83762	0.44267	0.58587	-0.005
H 	H 	0.8309	0.4494	0.5986	0.058
C 	C 	0.7603	0.4082	0.6195	-0.088
H 	H 	0.7678	0.4202	0.6266	0.069
C 	C 	0.7401	0.3996	0.6281	-0.027
H 	H 	0.7336	0.4059	0.6412	0.045
C 	C 	0.86747	0.44043	0.55957	0.057
H 	H 	0.881	0.4463	0.5537	0.058
C 	C 	0.82697	0.42479	0.57521	0.001
C 	C 	0.8064	0.41572	0.58428	0.007
C 	C 	0.7902	0.40859	0.59141	-0.032
C 	C 	0.7682	0.39893	0.60107	0.067
C 	C 	0.73	0.38226	0.61774	0.002
C 	C 	0.7094	0.37258	0.62742	0.019
C 	C 	0.6919	0.36434	0.63566	-0.082
C 	C 	0.6725	0.35525	0.64475	0.179
C 	C 	0.66402	0.364	0.66402	-0.233
H 	H 	0.6714	0.376	0.6714	0.116
O 	O 	0.02336	0.38664	0.58109	-0.357
O 	O 	0.02332	0.36024	0.60686	-0.376
C 	C 	0.03068	0.36696	0.58834	0.342
C 	C 	0.04935	0.35808	0.57797	-0.106
C 	C 	0.05733	0.33762	0.58587	-0.005
H 	H 	0.0506	0.3309	0.5986	0.058
C 	C 	0.0918	0.2603	0.6195	-0.088
H 	H 	0.0798	0.2678	0.6266	0.069
C 	C 	0.1004	0.2401	0.6281	-0.027
H 	H 	0.0941	0.2336	0.6412	0.045
C 	C 	0.05957	0.36747	0.55957	0.057
H 	H 	0.0537	0.381	0.5537	0.058
C 	C 	0.07521	0.32697	0.57521	0.001
C 	C 	0.08428	0.3064	0.58428	0.007
C 	C 	0.09141	0.2902	0.59141	-0.032
C 	C 	0.10107	0.2682	0.60107	0.067
C 	C 	0.11774	0.23	0.61774	0.002
C 	C 	0.12742	0.2094	0.62742	0.019
C 	C 	0.13566	0.1919	0.63566	-0.082
C 	C 	0.14475	0.1725	0.64475	0.179
O 	O 	0.11336	0.47664	0.41891	-0.357
O 	O 	0.13976	0.47668	0.39314	-0.376
C 	C 	0.13304	0.46932	0.41166	0.342
C 	C 	0.14192	0.45065	0.42203	-0.106
C 	C 	0.16238	0.44267	0.41413	-0.005
H 	H 	0.1691	0.4494	0.4014	0.058
C 	C 	0.2397	0.4082	0.3805	-0.088
H 	H 	0.2322	0.4202	0.3734	0.069
C 	C 	0.2599	0.3996	0.3719	-0.027
H 	H 	0.2664	0.4059	0.3588	0.045
C 	C 	0.13253	0.44043	0.44043	0.057
H 	H 	0.119	0.4463	0.4463	0.058
C 	C 	0.17303	0.42479	0.42479	0.001
C 	C 	0.1936	0.41572	0.41572	0.007
C 	C 	0.2098	0.40859	0.40859	-0.032
C 	C 	0.2318	0.39893	0.39893	0.067
C 	C 	0.27	0.38226	0.38226	0.002
C 	C 	0.2906	0.37258	0.37258	0.019
C 	C 	0.3081	0.36434	0.36434	-0.082
C 	C 	0.3275	0.35525	0.35525	0.179
C 	C 	0.33598	0.364	0.33598	-0.233
H 	H 	0.3286	0.376	0.3286	0.116
O 	O 	0.02336	0.61336	0.41891	-0.357
O 	O 	0.02332	0.63976	0.39314	-0.376
C 	C 	0.03068	0.63304	0.41166	0.342
C 	C 	0.04935	0.64192	0.42203	-0.106
C 	C 	0.05733	0.66238	0.41413	-0.005
H 	H 	0.0506	0.6691	0.4014	0.058
C 	C 	0.0918	0.7397	0.3805	-0.088
H 	H 	0.0798	0.7322	0.3734	0.069
C 	C 	0.1004	0.7599	0.3719	-0.027
H 	H 	0.0941	0.7664	0.3588	0.045
C 	C 	0.05957	0.63253	0.44043	0.057
H 	H 	0.0537	0.619	0.4463	0.058
C 	C 	0.07521	0.67303	0.42479	0.001
C 	C 	0.08428	0.6936	0.41572	0.007
C 	C 	0.09141	0.7098	0.40859	-0.032
C 	C 	0.10107	0.7318	0.39893	0.067
C 	C 	0.11774	0.77	0.38226	0.002
C 	C 	0.12742	0.7906	0.37258	0.019
C 	C 	0.13566	0.8081	0.36434	-0.082
C 	C 	0.14475	0.8275	0.35525	0.179
O 	O 	0.88664	0.52336	0.41891	-0.357
O 	O 	0.86024	0.52332	0.39314	-0.376
C 	C 	0.86696	0.53068	0.41166	0.342
C 	C 	0.85808	0.54935	0.42203	-0.106
C 	C 	0.83762	0.55733	0.41413	-0.005
H 	H 	0.8309	0.5506	0.4014	0.058
C 	C 	0.7603	0.5918	0.3805	-0.088
H 	H 	0.7678	0.5798	0.3734	0.069
C 	C 	0.7401	0.6004	0.3719	-0.027
H 	H 	0.7336	0.5941	0.3588	0.045
C 	C 	0.86747	0.55957	0.44043	0.057
H 	H 	0.881	0.5537	0.4463	0.058
C 	C 	0.82697	0.57521	0.42479	0.001
C 	C 	0.8064	0.58428	0.41572	0.007
C 	C 	0.7902	0.59141	0.40859	-0.032
C 	C 	0.7682	0.60107	0.39893	0.067
C 	C 	0.73	0.61774	0.38226	0.002
C 	C 	0.7094	0.62742	0.37258	0.019
C 	C 	0.6919	0.63566	0.36434	-0.082
C 	C 	0.6725	0.64475	0.35525	0.179
C 	C 	0.66402	0.636	0.33598	-0.233
H 	H 	0.6714	0.624	0.3286	0.116
O 	O 	0.97664	0.38664	0.41891	-0.357
O 	O 	0.97668	0.36024	0.39314	-0.376
C 	C 	0.96932	0.36696	0.41166	0.342
C 	C 	0.95065	0.35808	0.42203	-0.106
C 	C 	0.94267	0.33762	0.41413	-0.005
H 	H 	0.9494	0.3309	0.4014	0.058
C 	C 	0.9082	0.2603	0.3805	-0.088
H 	H 	0.9202	0.2678	0.3734	0.069
C 	C 	0.8996	0.2401	0.3719	-0.027
H 	H 	0.9059	0.2336	0.3588	0.045
C 	C 	0.94043	0.36747	0.44043	0.057
H 	H 	0.9463	0.381	0.4463	0.058
C 	C 	0.92479	0.32697	0.42479	0.001
C 	C 	0.91572	0.3064	0.41572	0.007
C 	C 	0.90859	0.2902	0.40859	-0.032
C 	C 	0.89893	0.2682	0.39893	0.067
C 	C 	0.88226	0.23	0.38226	0.002
C 	C 	0.87258	0.2094	0.37258	0.019
C 	C 	0.86434	0.1919	0.36434	-0.082
C 	C 	0.85525	0.1725	0.35525	0.179
Cu	Cu	0.094635	0.594635	0.5	0.928
Cu	Cu	0.125943	0.625943	0.5	0.926
O 	O 	0.08109	0.61336	0.52336	-0.357
O 	O 	0.10686	0.63976	0.52332	-0.376
O 	O 	0.06936	0.56936	0.5	-0.178
O 	O 	0.15112	0.65112	0.5	-0.212
C 	C 	0.08834	0.63304	0.53068	0.342
C 	C 	0.07797	0.64192	0.54935	-0.106
C 	C 	0.08587	0.66238	0.55733	-0.005
H 	H 	0.0986	0.6691	0.5506	0.058
C 	C 	0.1195	0.7397	0.5918	-0.088
H 	H 	0.1266	0.7322	0.5798	0.069
C 	C 	0.1281	0.7599	0.6004	-0.027
H 	H 	0.1412	0.7664	0.5941	0.045
C 	C 	0.05957	0.63253	0.55957	0.057
H 	H 	0.0537	0.619	0.5537	0.058
C 	C 	0.07521	0.67303	0.57521	0.001
C 	C 	0.08428	0.6936	0.58428	0.007
C 	C 	0.09141	0.7098	0.59141	-0.032
C 	C 	0.10107	0.7318	0.60107	0.067
C 	C 	0.11774	0.77	0.61774	0.002
C 	C 	0.12742	0.7906	0.62742	0.019
C 	C 	0.13566	0.8081	0.63566	-0.082
C 	C 	0.14475	0.8275	0.64475	0.179
C 	C 	0.16402	0.83598	0.636	-0.233
H 	H 	0.1714	0.8286	0.624	0.116
Cu	Cu	0.094635	0.405365	0.5	0.928
Cu	Cu	0.125943	0.374057	0.5	0.926
O 	O 	0.08109	0.38664	0.47664	-0.357
O 	O 	0.10686	0.36024	0.47668	-0.376
O 	O 	0.06936	0.43064	0.5	-0.178
O 	O 	0.15112	0.34888	0.5	-0.212
C 	C 	0.08834	0.36696	0.46932	0.342
C 	C 	0.07797	0.35808	0.45065	-0.106
C 	C 	0.08587	0.33762	0.44267	-0.005
H 	H 	0.0986	0.3309	0.4494	0.058
C 	C 	0.1195	0.2603	0.4082	-0.088
H 	H 	0.1266	0.2678	0.4202	0.069
C 	C 	0.1281	0.2401	0.3996	-0.027
H 	H 	0.1412	0.2336	0.4059	0.045
C 	C 	0.05957	0.36747	0.44043	0.057
H 	H 	0.0537	0.381	0.4463	0.058
C 	C 	0.07521	0.32697	0.42479	0.001
C 	C 	0.08428	0.3064	0.41572	0.007
C 	C 	0.09141	0.2902	0.40859	-0.032
C 	C 	0.10107	0.2682	0.39893	0.067
C 	C 	0.11774	0.23	0.38226	0.002
C 	C 	0.12742	0.2094	0.37258	0.019
C 	C 	0.13566	0.1919	0.36434	-0.082
C 	C 	0.14475	0.1725	0.35525	0.179
C 	C 	0.16402	0.16402	0.364	-0.233
H 	H 	0.1714	0.1714	0.376	0.116
O 	O 	0.11336	0.58109	0.47664	-0.357
O 	O 	0.13976	0.60686	0.47668	-0.376
C 	C 	0.13304	0.58834	0.46932	0.342
C 	C 	0.14192	0.57797	0.45065	-0.106
C 	C 	0.16238	0.58587	0.44267	-0.005
H 	H 	0.1691	0.5986	0.4494	0.058
C 	C 	0.2397	0.6195	0.4082	-0.088
H 	H 	0.2322	0.6266	0.4202	0.069
C 	C 	0.2599	0.6281	0.3996	-0.027
H 	H 	0.2664	0.6412	0.4059	0.045
C 	C 	0.13253	0.55957	0.44043	0.057
H 	H 	0.119	0.5537	0.4463	0.058
C 	C 	0.17303	0.57521	0.42479	0.001
C 	C 	0.1936	0.58428	0.41572	0.007
C 	C 	0.2098	0.59141	0.40859	-0.032
C 	C 	0.2318	0.60107	0.39893	0.067
C 	C 	0.27	0.61774	0.38226	0.002
C 	C 	0.2906	0.62742	0.37258	0.019
C 	C 	0.3081	0.63566	0.36434	-0.082
C 	C 	0.3275	0.64475	0.35525	0.179
C 	C 	0.33598	0.66402	0.364	-0.233
H 	H 	0.3286	0.6714	0.376	0.116
Cu	Cu	0.905365	0.594635	0.5	0.928
Cu	Cu	0.874057	0.625943	0.5	0.926
O 	O 	0.91891	0.61336	0.47664	-0.357
O 	O 	0.89314	0.63976	0.47668	-0.376
O 	O 	0.93064	0.56936	0.5	-0.178
O 	O 	0.84888	0.65112	0.5	-0.212
C 	C 	0.91166	0.63304	0.46932	0.342
C 	C 	0.92203	0.64192	0.45065	-0.106
C 	C 	0.91413	0.66238	0.44267	-0.005
H 	H 	0.9014	0.6691	0.4494	0.058
C 	C 	0.8805	0.7397	0.4082	-0.088
H 	H 	0.8734	0.7322	0.4202	0.069
C 	C 	0.8719	0.7599	0.3996	-0.027
H 	H 	0.8588	0.7664	0.4059	0.045
C 	C 	0.94043	0.63253	0.44043	0.057
H 	H 	0.9463	0.619	0.4463	0.058
C 	C 	0.92479	0.67303	0.42479	0.001
C 	C 	0.91572	0.6936	0.41572	0.007
C 	C 	0.90859	0.7098	0.40859	-0.032
C 	C 	0.89893	0.7318	0.39893	0.067
C 	C 	0.88226	0.77	0.38226	0.002
C 	C 	0.87258	0.7906	0.37258	0.019
C 	C 	0.86434	0.8081	0.36434	-0.082
C 	C 	0.85525	0.8275	0.35525	0.179
C 	C 	0.83598	0.83598	0.364	-0.233
H 	H 	0.8286	0.8286	0.376	0.116
Cu	Cu	0.905365	0.405365	0.5	0.928
Cu	Cu	0.874057	0.374057	0.5	0.926
O 	O 	0.88664	0.41891	0.47664	-0.357
O 	O 	0.86024	0.39314	0.47668	-0.376
O 	O 	0.93064	0.43064	0.5	-0.178
O 	O 	0.84888	0.34888	0.5	-0.212
C 	C 	0.86696	0.41166	0.46932	0.342
C 	C 	0.85808	0.42203	0.45065	-0.106
C 	C 	0.83762	0.41413	0.44267	-0.005
H 	H 	0.8309	0.4014	0.4494	0.058
C 	C 	0.7603	0.3805	0.4082	-0.088
H 	H 	0.7678	0.3734	0.4202	0.069
C 	C 	0.7401	0.3719	0.3996	-0.027
H 	H 	0.7336	0.3588	0.4059	0.045
C 	C 	0.86747	0.44043	0.44043	0.057
H 	H 	0.881	0.4463	0.4463	0.058
C 	C 	0.82697	0.42479	0.42479	0.001
C 	C 	0.8064	0.41572	0.41572	0.007
C 	C 	0.7902	0.40859	0.40859	-0.032
C 	C 	0.7682	0.39893	0.39893	0.067
C 	C 	0.73	0.38226	0.38226	0.002
C 	C 	0.7094	0.37258	0.37258	0.019
C 	C 	0.6919	0.36434	0.36434	-0.082
C 	C 	0.6725	0.35525	0.35525	0.179
C 	C 	0.66402	0.33598	0.364	-0.233
H 	H 	0.6714	0.3286	0.376	0.116
O 	O 	0.91891	0.38664	0.52336	-0.357
O 	O 	0.89314	0.36024	0.52332	-0.376
C 	C 	0.91166	0.36696	0.53068	0.342
C 	C 	0.92203	0.35808	0.54935	-0.106
C 	C 	0.91413	0.33762	0.55733	-0.005
H 	H 	0.9014	0.3309	0.5506	0.058
C 	C 	0.8805	0.2603	0.5918	-0.088
H 	H 	0.8734	0.2678	0.5798	0.069
C 	C 	0.8719	0.2401	0.6004	-0.027
H 	H 	0.8588	0.2336	0.5941	0.045
C 	C 	0.94043	0.36747	0.55957	0.057
H 	H 	0.9463	0.381	0.5537	0.058
C 	C 	0.92479	0.32697	0.57521	0.001
C 	C 	0.91572	0.3064	0.58428	0.007
C 	C 	0.90859	0.2902	0.59141	-0.032
C 	C 	0.89893	0.2682	0.60107	0.067
C 	C 	0.88226	0.23	0.61774	0.002
C 	C 	0.87258	0.2094	0.62742	0.019
C 	C 	0.86434	0.1919	0.63566	-0.082
C 	C 	0.85525	0.1725	0.64475	0.179
C 	C 	0.83598	0.16402	0.636	-0.233
H 	H 	0.8286	0.1714	0.624	0.116
O 	O 	0.11336	0.41891	0.52336	-0.357
O 	O 	0.13976	0.39314	0.52332	-0.376
C 	C 	0.13304	0.41166	0.53068	0.342
C 	C 	0.14192	0.42203	0.54935	-0.106
C 	C 	0.16238	0.41413	0.55733	-0.005
H 	H 	0.1691	0.4014	0.5506	0.058
C 	C 	0.2397	0.3805	0.5918	-0.088
H 	H 	0.2322	0.3734	0.5798	0.069
C 	C 	0.2599	0.3719	0.6004	-0.027
H 	H 	0.2664	0.3588	0.5941	0.045
C 	C 	0.13253	0.44043	0.55957	0.057
H 	H 	0.119	0.4463	0.5537	0.058
C 	C 	0.17303	0.42479	0.57521	0.001
C 	C 	0.1936	0.41572	0.58428	0.007
C 	C 	0.2098	0.40859	0.59141	-0.032
C 	C 	0.2318	0.39893	0.60107	0.067
C 	C 	0.27	0.38226	0.61774	0.002
C 	C 	0.2906	0.37258	0.62742	0.019
C 	C 	0.3081	0.36434	0.63566	-0.082
C 	C 	0.3275	0.35525	0.64475	0.179
C 	C 	0.33598	0.33598	0.636	-0.233
H 	H 	0.3286	0.3286	0.624	0.116
O 	O 	0.88664	0.58109	0.52336	-0.357
O 	O 	0.86024	0.60686	0.52332	-0.376
C 	C 	0.86696	0.58834	0.53068	0.342
C 	C 	0.85808	0.57797	0.54935	-0.106
C 	C 	0.83762	0.58587	0.55733	-0.005
H 	H 	0.8309	0.5986	0.5506	0.058
C 	C 	0.7603	0.6195	0.5918	-0.088
H 	H 	0.7678	0.6266	0.5798	0.069
C 	C 	0.7401	0.6281	0.6004	-0.027
H 	H 	0.7336	0.6412	0.5941	0.045
C 	C 	0.86747	0.55957	0.55957	0.057
H 	H 	0.881	0.5537	0.5537	0.058
C 	C 	0.82697	0.57521	0.57521	0.001
C 	C 	0.8064	0.58428	0.58428	0.007
C 	C 	0.7902	0.59141	0.59141	-0.032
C 	C 	0.7682	0.60107	0.60107	0.067
C 	C 	0.73	0.61774	0.61774	0.002
C 	C 	0.7094	0.62742	0.62742	0.019
C 	C 	0.6919	0.63566	0.63566	-0.082
C 	C 	0.6725	0.64475	0.64475	0.179
C 	C 	0.66402	0.66402	0.636	-0.233
H 	H 	0.6714	0.6714	0.624	0.116
O 	O 	0.97664	0.41891	0.38664	-0.357
O 	O 	0.97668	0.39314	0.36024	-0.376
C 	C 	0.96932	0.41166	0.36696	0.342
C 	C 	0.95065	0.42203	0.35808	-0.106
C 	C 	0.94267	0.41413	0.33762	-0.005
H 	H 	0.9494	0.4014	0.3309	0.058
C 	C 	0.9082	0.3805	0.2603	-0.088
H 	H 	0.9202	0.3734	0.2678	0.069
C 	C 	0.8996	0.3719	0.2401	-0.027
H 	H 	0.9059	0.3588	0.2336	0.045
O 	O 	0.08109	0.47664	0.38664	-0.357
O 	O 	0.10686	0.47668	0.36024	-0.376
C 	C 	0.08834	0.46932	0.36696	0.342
C 	C 	0.07797	0.45065	0.35808	-0.106
C 	C 	0.08587	0.44267	0.33762	-0.005
H 	H 	0.0986	0.4494	0.3309	0.058
C 	C 	0.1195	0.4082	0.2603	-0.088
H 	H 	0.1266	0.4202	0.2678	0.069
C 	C 	0.1281	0.3996	0.2401	-0.027
H 	H 	0.1412	0.4059	0.2336	0.045
C 	C 	0.16402	0.364	0.16402	-0.233
H 	H 	0.1714	0.376	0.1714	0.116
O 	O 	0.02336	0.58109	0.38664	-0.357
O 	O 	0.02332	0.60686	0.36024	-0.376
C 	C 	0.03068	0.58834	0.36696	0.342
C 	C 	0.04935	0.57797	0.35808	-0.106
C 	C 	0.05733	0.58587	0.33762	-0.005
H 	H 	0.0506	0.5986	0.3309	0.058
C 	C 	0.0918	0.6195	0.2603	-0.088
H 	H 	0.0798	0.6266	0.2678	0.069
C 	C 	0.1004	0.6281	0.2401	-0.027
H 	H 	0.0941	0.6412	0.2336	0.045
O 	O 	0.91891	0.52336	0.38664	-0.357
O 	O 	0.89314	0.52332	0.36024	-0.376
C 	C 	0.91166	0.53068	0.36696	0.342
C 	C 	0.92203	0.54935	0.35808	-0.106
C 	C 	0.91413	0.55733	0.33762	-0.005
H 	H 	0.9014	0.5506	0.3309	0.058
C 	C 	0.8805	0.5918	0.2603	-0.088
H 	H 	0.8734	0.5798	0.2678	0.069
C 	C 	0.8719	0.6004	0.2401	-0.027
H 	H 	0.8588	0.5941	0.2336	0.045
C 	C 	0.83598	0.636	0.16402	-0.233
H 	H 	0.8286	0.624	0.1714	0.116
O 	O 	0.97664	0.58109	0.61336	-0.357
O 	O 	0.97668	0.60686	0.63976	-0.376
C 	C 	0.96932	0.58834	0.63304	0.342
C 	C 	0.95065	0.57797	0.64192	-0.106
C 	C 	0.94267	0.58587	0.66238	-0.005
H 	H 	0.9494	0.5986	0.6691	0.058
C 	C 	0.9082	0.6195	0.7397	-0.088
H 	H 	0.9202	0.6266	0.7322	0.069
C 	C 	0.8996	0.6281	0.7599	-0.027
H 	H 	0.9059	0.6412	0.7664	0.045
O 	O 	0.91891	0.47664	0.61336	-0.357
O 	O 	0.89314	0.47668	0.63976	-0.376
C 	C 	0.91166	0.46932	0.63304	0.342
C 	C 	0.92203	0.45065	0.64192	-0.106
C 	C 	0.91413	0.44267	0.66238	-0.005
H 	H 	0.9014	0.4494	0.6691	0.058
C 	C 	0.8805	0.4082	0.7397	-0.088
H 	H 	0.8734	0.4202	0.7322	0.069
C 	C 	0.8719	0.3996	0.7599	-0.027
H 	H 	0.8588	0.4059	0.7664	0.045
C 	C 	0.83598	0.364	0.83598	-0.233
H 	H 	0.8286	0.376	0.8286	0.116
O 	O 	0.02336	0.41891	0.61336	-0.357
O 	O 	0.02332	0.39314	0.63976	-0.376
C 	C 	0.03068	0.41166	0.63304	0.342
C 	C 	0.04935	0.42203	0.64192	-0.106
C 	C 	0.05733	0.41413	0.66238	-0.005
H 	H 	0.0506	0.4014	0.6691	0.058
C 	C 	0.0918	0.3805	0.7397	-0.088
H 	H 	0.0798	0.3734	0.7322	0.069
C 	C 	0.1004	0.3719	0.7599	-0.027
H 	H 	0.0941	0.3588	0.7664	0.045
O 	O 	0.08109	0.52336	0.61336	-0.357
O 	O 	0.10686	0.52332	0.63976	-0.376
C 	C 	0.08834	0.53068	0.63304	0.342
C 	C 	0.07797	0.54935	0.64192	-0.106
C 	C 	0.08587	0.55733	0.66238	-0.005
H 	H 	0.0986	0.5506	0.6691	0.058
C 	C 	0.1195	0.5918	0.7397	-0.088
H 	H 	0.1266	0.5798	0.7322	0.069
C 	C 	0.1281	0.6004	0.7599	-0.027
H 	H 	0.1412	0.5941	0.7664	0.045
C 	C 	0.16402	0.636	0.83598	-0.233
H 	H 	0.1714	0.624	0.8286	0.116
O 	O 	0.88664	0.47664	0.41891	-0.357
O 	O 	0.86024	0.47668	0.39314	-0.376
C 	C 	0.86696	0.46932	0.41166	0.342
C 	C 	0.85808	0.45065	0.42203	-0.106
C 	C 	0.83762	0.44267	0.41413	-0.005
H 	H 	0.8309	0.4494	0.4014	0.058
C 	C 	0.7603	0.4082	0.3805	-0.088
H 	H 	0.7678	0.4202	0.3734	0.069
C 	C 	0.7401	0.3996	0.3719	-0.027
H 	H 	0.7336	0.4059	0.3588	0.045
C 	C 	0.66402	0.364	0.33598	-0.233
H 	H 	0.6714	0.376	0.3286	0.116
O 	O 	0.02336	0.38664	0.41891	-0.357
O 	O 	0.02332	0.36024	0.39314	-0.376
C 	C 	0.03068	0.36696	0.41166	0.342
C 	C 	0.04935	0.35808	0.42203	-0.106
C 	C 	0.05733	0.33762	0.41413	-0.005
H 	H 	0.0506	0.3309	0.4014	0.058
C 	C 	0.0918	0.2603	0.3805	-0.088
H 	H 	0.0798	0.2678	0.3734	0.069
C 	C 	0.1004	0.2401	0.3719	-0.027
H 	H 	0.0941	0.2336	0.3588	0.045
O 	O 	0.11336	0.52336	0.41891	-0.357
O 	O 	0.13976	0.52332	0.39314	-0.376
C 	C 	0.13304	0.53068	0.41166	0.342
C 	C 	0.14192	0.54935	0.42203	-0.106
C 	C 	0.16238	0.55733	0.41413	-0.005
H 	H 	0.1691	0.5506	0.4014	0.058
C 	C 	0.2397	0.5918	0.3805	-0.088
H 	H 	0.2322	0.5798	0.3734	0.069
C 	C 	0.2599	0.6004	0.3719	-0.027
H 	H 	0.2664	0.5941	0.3588	0.045
C 	C 	0.33598	0.636	0.33598	-0.233
H 	H 	0.3286	0.624	0.3286	0.116
O 	O 	0.97664	0.61336	0.41891	-0.357
O 	O 	0.97668	0.63976	0.39314	-0.376
C 	C 	0.96932	0.63304	0.41166	0.342
C 	C 	0.95065	0.64192	0.42203	-0.106
C 	C 	0.94267	0.66238	0.41413	-0.005
H 	H 	0.9494	0.6691	0.4014	0.058
C 	C 	0.9082	0.7397	0.3805	-0.088
H 	H 	0.9202	0.7322	0.3734	0.069
C 	C 	0.8996	0.7599	0.3719	-0.027
H 	H 	0.9059	0.7664	0.3588	0.045
O 	O 	0.88664	0.52336	0.58109	-0.357
O 	O 	0.86024	0.52332	0.60686	-0.376
C 	C 	0.86696	0.53068	0.58834	0.342
C 	C 	0.85808	0.54935	0.57797	-0.106
C 	C 	0.83762	0.55733	0.58587	-0.005
H 	H 	0.8309	0.5506	0.5986	0.058
C 	C 	0.7603	0.5918	0.6195	-0.088
H 	H 	0.7678	0.5798	0.6266	0.069
C 	C 	0.7401	0.6004	0.6281	-0.027
H 	H 	0.7336	0.5941	0.6412	0.045
C 	C 	0.66402	0.636	0.66402	-0.233
H 	H 	0.6714	0.624	0.6714	0.116
O 	O 	0.97664	0.38664	0.58109	-0.357
O 	O 	0.97668	0.36024	0.60686	-0.376
C 	C 	0.96932	0.36696	0.58834	0.342
C 	C 	0.95065	0.35808	0.57797	-0.106
C 	C 	0.94267	0.33762	0.58587	-0.005
H 	H 	0.9494	0.3309	0.5986	0.058
C 	C 	0.9082	0.2603	0.6195	-0.088
H 	H 	0.9202	0.2678	0.6266	0.069
C 	C 	0.8996	0.2401	0.6281	-0.027
H 	H 	0.9059	0.2336	0.6412	0.045
O 	O 	0.11336	0.47664	0.58109	-0.357
O 	O 	0.13976	0.47668	0.60686	-0.376
C 	C 	0.13304	0.46932	0.58834	0.342
C 	C 	0.14192	0.45065	0.57797	-0.106
C 	C 	0.16238	0.44267	0.58587	-0.005
H 	H 	0.1691	0.4494	0.5986	0.058
C 	C 	0.2397	0.4082	0.6195	-0.088
H 	H 	0.2322	0.4202	0.6266	0.069
C 	C 	0.2599	0.3996	0.6281	-0.027
H 	H 	0.2664	0.4059	0.6412	0.045
C 	C 	0.33598	0.364	0.66402	-0.233
H 	H 	0.3286	0.376	0.6714	0.116
O 	O 	0.02336	0.61336	0.58109	-0.357
O 	O 	0.02332	0.63976	0.60686	-0.376
C 	C 	0.03068	0.63304	0.58834	0.342
C 	C 	0.04935	0.64192	0.57797	-0.106
C 	C 	0.05733	0.66238	0.58587	-0.005
H 	H 	0.0506	0.6691	0.5986	0.058
C 	C 	0.0918	0.7397	0.6195	-0.088
H 	H 	0.0798	0.7322	0.6266	0.069
C 	C 	0.1004	0.7599	0.6281	-0.027
H 	H 	0.0941	0.7664	0.6412	0.045
O 	O 	0.91891	0.38664	0.47664	-0.357
O 	O 	0.89314	0.36024	0.47668	-0.376
C 	C 	0.91166	0.36696	0.46932	0.342
C 	C 	0.92203	0.35808	0.45065	-0.106
C 	C 	0.91413	0.33762	0.44267	-0.005
H 	H 	0.9014	0.3309	0.4494	0.058
C 	C 	0.8805	0.2603	0.4082	-0.088
H 	H 	0.8734	0.2678	0.4202	0.069
C 	C 	0.8719	0.2401	0.3996	-0.027
H 	H 	0.8588	0.2336	0.4059	0.045
C 	C 	0.83598	0.16402	0.364	-0.233
H 	H 	0.8286	0.1714	0.376	0.116
O 	O 	0.91891	0.61336	0.52336	-0.357
O 	O 	0.89314	0.63976	0.52332	-0.376
C 	C 	0.91166	0.63304	0.53068	0.342
C 	C 	0.92203	0.64192	0.54935	-0.106
C 	C 	0.91413	0.66238	0.55733	-0.005
H 	H 	0.9014	0.6691	0.5506	0.058
C 	C 	0.8805	0.7397	0.5918	-0.088
H 	H 	0.8734	0.7322	0.5798	0.069
C 	C 	0.8719	0.7599	0.6004	-0.027
H 	H 	0.8588	0.7664	0.5941	0.045
C 	C 	0.83598	0.83598	0.636	-0.233
H 	H 	0.8286	0.8286	0.624	0.116
O 	O 	0.88664	0.41891	0.52336	-0.357
O 	O 	0.86024	0.39314	0.52332	-0.376
C 	C 	0.86696	0.41166	0.53068	0.342
C 	C 	0.85808	0.42203	0.54935	-0.106
C 	C 	0.83762	0.41413	0.55733	-0.005
H 	H 	0.8309	0.4014	0.5506	0.058
C 	C 	0.7603	0.3805	0.5918	-0.088
H 	H 	0.7678	0.3734	0.5798	0.069
C 	C 	0.7401	0.3719	0.6004	-0.027
H 	H 	0.7336	0.3588	0.5941	0.045
C 	C 	0.66402	0.33598	0.636	-0.233
H 	H 	0.6714	0.3286	0.624	0.116
O 	O 	0.08109	0.38664	0.52336	-0.357
O 	O 	0.10686	0.36024	0.52332	-0.376
C 	C 	0.08834	0.36696	0.53068	0.342
C 	C 	0.07797	0.35808	0.54935	-0.106
C 	C 	0.08587	0.33762	0.55733	-0.005
H 	H 	0.0986	0.3309	0.5506	0.058
C 	C 	0.1195	0.2603	0.5918	-0.088
H 	H 	0.1266	0.2678	0.5798	0.069
C 	C 	0.1281	0.2401	0.6004	-0.027
H 	H 	0.1412	0.2336	0.5941	0.045
C 	C 	0.16402	0.16402	0.636	-0.233
H 	H 	0.1714	0.1714	0.624	0.116
O 	O 	0.11336	0.58109	0.52336	-0.357
O 	O 	0.13976	0.60686	0.52332	-0.376
C 	C 	0.13304	0.58834	0.53068	0.342
C 	C 	0.14192	0.57797	0.54935	-0.106
C 	C 	0.16238	0.58587	0.55733	-0.005
H 	H 	0.1691	0.5986	0.5506	0.058
C 	C 	0.2397	0.6195	0.5918	-0.088
H 	H 	0.2322	0.6266	0.5798	0.069
C 	C 	0.2599	0.6281	0.6004	-0.027
H 	H 	0.2664	0.6412	0.5941	0.045
C 	C 	0.33598	0.66402	0.636	-0.233
H 	H 	0.3286	0.6714	0.624	0.116
O 	O 	0.08109	0.61336	0.47664	-0.357
O 	O 	0.10686	0.63976	0.47668	-0.376
C 	C 	0.08834	0.63304	0.46932	0.342
C 	C 	0.07797	0.64192	0.45065	-0.106
C 	C 	0.08587	0.66238	0.44267	-0.005
H 	H 	0.0986	0.6691	0.4494	0.058
C 	C 	0.1195	0.7397	0.4082	-0.088
H 	H 	0.1266	0.7322	0.4202	0.069
C 	C 	0.1281	0.7599	0.3996	-0.027
H 	H 	0.1412	0.7664	0.4059	0.045
C 	C 	0.16402	0.83598	0.364	-0.233
H 	H 	0.1714	0.8286	0.376	0.116
O 	O 	0.88664	0.58109	0.47664	-0.357
O 	O 	0.86024	0.60686	0.47668	-0.376
C 	C 	0.86696	0.58834	0.46932	0.342
C 	C 	0.85808	0.57797	0.45065	-0.106
C 	C 	0.83762	0.58587	0.44267	-0.005
H 	H 	0.8309	0.5986	0.4494	0.058
C 	C 	0.7603	0.6195	0.4082	-0.088
H 	H 	0.7678	0.6266	0.4202	0.069
C 	C 	0.7401	0.6281	0.3996	-0.027
H 	H 	0.7336	0.6412	0.4059	0.045
C 	C 	0.66402	0.66402	0.364	-0.233
H 	H 	0.6714	0.6714	0.376	0.116
O 	O 	0.11336	0.41891	0.47664	-0.357
O 	O 	0.13976	0.39314	0.47668	-0.376
C 	C 	0.13304	0.41166	0.46932	0.342
C 	C 	0.14192	0.42203	0.45065	-0.106
C 	C 	0.16238	0.41413	0.44267	-0.005
H 	H 	0.1691	0.4014	0.4494	0.058
C 	C 	0.2397	0.3805	0.4082	-0.088
H 	H 	0.2322	0.3734	0.4202	0.069
C 	C 	0.2599	0.3719	0.3996	-0.027
H 	H 	0.2664	0.3588	0.4059	0.045
C 	C 	0.33598	0.33598	0.364	-0.233
H 	H 	0.3286	0.3286	0.376	0.116
Cu	Cu	0.5	0.094635	0.594635	0.928
Cu	Cu	0.5	0.125943	0.625943	0.926
O 	O 	0.52336	0.08109	0.61336	-0.357
O 	O 	0.52332	0.10686	0.63976	-0.376
O 	O 	0.5	0.06936	0.56936	-0.178
O 	O 	0.5	0.15112	0.65112	-0.212
C 	C 	0.53068	0.08834	0.63304	0.342
C 	C 	0.54935	0.07797	0.64192	-0.106
C 	C 	0.55733	0.08587	0.66238	-0.005
H 	H 	0.5506	0.0986	0.6691	0.058
C 	C 	0.5918	0.1195	0.7397	-0.088
H 	H 	0.5798	0.1266	0.7322	0.069
C 	C 	0.6004	0.1281	0.7599	-0.027
H 	H 	0.5941	0.1412	0.7664	0.045
C 	C 	0.55957	0.05957	0.63253	0.057
H 	H 	0.5537	0.0537	0.619	0.058
C 	C 	0.57521	0.07521	0.67303	0.001
C 	C 	0.58428	0.08428	0.6936	0.007
C 	C 	0.59141	0.09141	0.7098	-0.032
C 	C 	0.60107	0.10107	0.7318	0.067
C 	C 	0.61774	0.11774	0.77	0.002
C 	C 	0.62742	0.12742	0.7906	0.019
C 	C 	0.63566	0.13566	0.8081	-0.082
C 	C 	0.64475	0.14475	0.8275	0.179
C 	C 	0.636	0.16402	0.83598	-0.233
H 	H 	0.624	0.1714	0.8286	0.116
Cu	Cu	0.405365	0	0.594635	0.928
Cu	Cu	0.374057	0	0.625943	0.926
O 	O 	0.41891	0.02336	0.61336	-0.357
O 	O 	0.39314	0.02332	0.63976	-0.376
O 	O 	0.43064	0	0.56936	-0.179
O 	O 	0.34888	0	0.65112	-0.212
C 	C 	0.41166	0.03068	0.63304	0.342
C 	C 	0.42203	0.04935	0.64192	-0.106
C 	C 	0.41413	0.05733	0.66238	-0.005
H 	H 	0.4014	0.0506	0.6691	0.058
C 	C 	0.3805	0.0918	0.7397	-0.088
H 	H 	0.3734	0.0798	0.7322	0.069
C 	C 	0.3719	0.1004	0.7599	-0.027
H 	H 	0.3588	0.0941	0.7664	0.045
C 	C 	0.44043	0.05957	0.63253	0.057
H 	H 	0.4463	0.0537	0.619	0.058
C 	C 	0.42479	0.07521	0.67303	0.001
C 	C 	0.41572	0.08428	0.6936	0.007
C 	C 	0.40859	0.09141	0.7098	-0.032
C 	C 	0.39893	0.10107	0.7318	0.067
C 	C 	0.38226	0.11774	0.77	0.002
C 	C 	0.37258	0.12742	0.7906	0.019
C 	C 	0.36434	0.13566	0.8081	-0.082
C 	C 	0.35525	0.14475	0.8275	0.179
Cu	Cu	0.5	0.905365	0.594635	0.928
Cu	Cu	0.5	0.874057	0.625943	0.926
O 	O 	0.47664	0.91891	0.61336	-0.357
O 	O 	0.47668	0.89314	0.63976	-0.376
O 	O 	0.5	0.93064	0.56936	-0.178
O 	O 	0.5	0.84888	0.65112	-0.212
C 	C 	0.46932	0.91166	0.63304	0.342
C 	C 	0.45065	0.92203	0.64192	-0.106
C 	C 	0.44267	0.91413	0.66238	-0.005
H 	H 	0.4494	0.9014	0.6691	0.058
C 	C 	0.4082	0.8805	0.7397	-0.088
H 	H 	0.4202	0.8734	0.7322	0.069
C 	C 	0.3996	0.8719	0.7599	-0.027
H 	H 	0.4059	0.8588	0.7664	0.045
C 	C 	0.44043	0.94043	0.63253	0.057
H 	H 	0.4463	0.9463	0.619	0.058
C 	C 	0.42479	0.92479	0.67303	0.001
C 	C 	0.41572	0.91572	0.6936	0.007
C 	C 	0.40859	0.90859	0.7098	-0.032
C 	C 	0.39893	0.89893	0.7318	0.067
C 	C 	0.38226	0.88226	0.77	0.002
C 	C 	0.37258	0.87258	0.7906	0.019
C 	C 	0.36434	0.86434	0.8081	-0.082
C 	C 	0.35525	0.85525	0.8275	0.179
C 	C 	0.364	0.83598	0.83598	-0.233
H 	H 	0.376	0.8286	0.8286	0.116
Cu	Cu	0.594635	0	0.594635	0.928
Cu	Cu	0.625943	0	0.625943	0.926
O 	O 	0.58109	0.97664	0.61336	-0.357
O 	O 	0.60686	0.97668	0.63976	-0.376
O 	O 	0.56936	0	0.56936	-0.179
O 	O 	0.65112	0	0.65112	-0.212
C 	C 	0.58834	0.96932	0.63304	0.342
C 	C 	0.57797	0.95065	0.64192	-0.106
C 	C 	0.58587	0.94267	0.66238	-0.005
H 	H 	0.5986	0.9494	0.6691	0.058
C 	C 	0.6195	0.9082	0.7397	-0.088
H 	H 	0.6266	0.9202	0.7322	0.069
C 	C 	0.6281	0.8996	0.7599	-0.027
H 	H 	0.6412	0.9059	0.7664	0.045
C 	C 	0.55957	0.94043	0.63253	0.057
H 	H 	0.5537	0.9463	0.619	0.058
C 	C 	0.57521	0.92479	0.67303	0.001
C 	C 	0.58428	0.91572	0.6936	0.007
C 	C 	0.59141	0.90859	0.7098	-0.032
C 	C 	0.60107	0.89893	0.7318	0.067
C 	C 	0.61774	0.88226	0.77	0.002
C 	C 	0.62742	0.87258	0.7906	0.019
C 	C 	0.63566	0.86434	0.8081	-0.082
C 	C 	0.64475	0.85525	0.8275	0.179
Cu	Cu	0.5	0.905365	0.405365	0.928
Cu	Cu	0.5	0.874057	0.374057	0.926
O 	O 	0.52336	0.91891	0.38664	-0.357
O 	O 	0.52332	0.89314	0.36024	-0.376
O 	O 	0.5	0.93064	0.43064	-0.178
O 	O 	0.5	0.84888	0.34888	-0.212
C 	C 	0.53068	0.91166	0.36696	0.342
C 	C 	0.54935	0.92203	0.35808	-0.106
C 	C 	0.55733	0.91413	0.33762	-0.005
H 	H 	0.5506	0.9014	0.3309	0.058
C 	C 	0.5918	0.8805	0.2603	-0.088
H 	H 	0.5798	0.8734	0.2678	0.069
C 	C 	0.6004	0.8719	0.2401	-0.027
H 	H 	0.5941	0.8588	0.2336	0.045
C 	C 	0.55957	0.94043	0.36747	0.057
H 	H 	0.5537	0.9463	0.381	0.058
C 	C 	0.57521	0.92479	0.32697	0.001
C 	C 	0.58428	0.91572	0.3064	0.007
C 	C 	0.59141	0.90859	0.2902	-0.032
C 	C 	0.60107	0.89893	0.2682	0.067
C 	C 	0.61774	0.88226	0.23	0.002
C 	C 	0.62742	0.87258	0.2094	0.019
C 	C 	0.63566	0.86434	0.1919	-0.082
C 	C 	0.64475	0.85525	0.1725	0.179
C 	C 	0.636	0.83598	0.16402	-0.233
H 	H 	0.624	0.8286	0.1714	0.116
Cu	Cu	0.594635	0	0.405365	0.928
Cu	Cu	0.625943	-3.76382e-33	0.374057	0.926
O 	O 	0.58109	0.02336	0.38664	-0.357
O 	O 	0.60686	0.02332	0.36024	-0.376
O 	O 	0.56936	0	0.43064	-0.179
O 	O 	0.65112	0	0.34888	-0.212
C 	C 	0.58834	0.03068	0.36696	0.342
C 	C 	0.57797	0.04935	0.35808	-0.106
C 	C 	0.58587	0.05733	0.33762	-0.005
H 	H 	0.5986	0.0506	0.3309	0.058
C 	C 	0.6195	0.0918	0.2603	-0.088
H 	H 	0.6266	0.0798	0.2678	0.069
C 	C 	0.6281	0.1004	0.2401	-0.027
H 	H 	0.6412	0.0941	0.2336	0.045
C 	C 	0.55957	0.05957	0.36747	0.057
H 	H 	0.5537	0.0537	0.381	0.058
C 	C 	0.57521	0.07521	0.32697	0.001
C 	C 	0.58428	0.08428	0.3064	0.007
C 	C 	0.59141	0.09141	0.2902	-0.032
C 	C 	0.60107	0.10107	0.2682	0.067
C 	C 	0.61774	0.11774	0.23	0.002
C 	C 	0.62742	0.12742	0.2094	0.019
C 	C 	0.63566	0.13566	0.1919	-0.082
C 	C 	0.64475	0.14475	0.1725	0.179
Cu	Cu	0.5	0.094635	0.405365	0.928
Cu	Cu	0.5	0.125943	0.374057	0.926
O 	O 	0.47664	0.08109	0.38664	-0.357
O 	O 	0.47668	0.10686	0.36024	-0.376
O 	O 	0.5	0.06936	0.43064	-0.178
O 	O 	0.5	0.15112	0.34888	-0.212
C 	C 	0.46932	0.08834	0.36696	0.342
C 	C 	0.45065	0.07797	0.35808	-0.106
C 	C 	0.44267	0.08587	0.33762	-0.005
H 	H 	0.4494	0.0986	0.3309	0.058
C 	C 	0.4082	0.1195	0.2603	-0.088
H 	H 	0.4202	0.1266	0.2678	0.069
C 	C 	0.3996	0.1281	0.2401	-0.027
H 	H 	0.4059	0.1412	0.2336	0.045
C 	C 	0.44043	0.05957	0.36747	0.057
H 	H 	0.4463	0.0537	0.381	0.058
C 	C 	0.42479	0.07521	0.32697	0.001
C 	C 	0.41572	0.08428	0.3064	0.007
C 	C 	0.40859	0.09141	0.2902	-0.032
C 	C 	0.39893	0.10107	0.2682	0.067
C 	C 	0.38226	0.11774	0.23	0.002
C 	C 	0.37258	0.12742	0.2094	0.019
C 	C 	0.36434	0.13566	0.1919	-0.082
C 	C 	0.35525	0.14475	0.1725	0.179
C 	C 	0.364	0.16402	0.16402	-0.233
H 	H 	0.376	0.1714	0.1714	0.116
Cu	Cu	0.405365	0	0.405365	0.928
Cu	Cu	0.374057	-3.76382e-33	0.374057	0.926
O 	O 	0.41891	0.97664	0.38664	-0.357
O 	O 	0.39314	0.97668	0.36024	-0.376
O 	O 	0.43064	0	0.43064	-0.179
O 	O 	0.34888	0	0.34888	-0.212
C 	C 	0.41166	0.96932	0.36696	0.342
C 	C 	0.42203	0.95065	0.35808	-0.106
C 	C 	0.41413	0.94267	0.33762	-0.005
H 	H 	0.4014	0.9494	0.3309	0.058
C 	C 	0.3805	0.9082	0.2603	-0.088
H 	H 	0.3734	0.9202	0.2678	0.069
C 	C 	0.3719	0.8996	0.2401	-0.027
H 	H 	0.3588	0.9059	0.2336	0.045
C 	C 	0.44043	0.94043	0.36747	0.057
H 	H 	0.4463	0.9463	0.381	0.058
C 	C 	0.42479	0.92479	0.32697	0.001
C 	C 	0.41572	0.91572	0.3064	0.007
C 	C 	0.40859	0.90859	0.2902	-0.032
C 	C 	0.39893	0.89893	0.2682	0.067
C 	C 	0.38226	0.88226	0.23	0.002
C 	C 	0.37258	0.87258	0.2094	0.019
C 	C 	0.36434	0.86434	0.1919	-0.082
C 	C 	0.35525	0.85525	0.1725	0.179
O 	O 	0.61336	0.02336	0.58109	-0.357
O 	O 	0.63976	0.02332	0.60686	-0.376
C 	C 	0.63304	0.03068	0.58834	0.342
C 	C 	0.64192	0.04935	0.57797	-0.106
C 	C 	0.66238	0.05733	0.58587	-0.005
H 	H 	0.6691	0.0506	0.5986	0.058
C 	C 	0.7397	0.0918	0.6195	-0.088
H 	H 	0.7322	0.0798	0.6266	0.069
C 	C 	0.7599	0.1004	0.6281	-0.027
H 	H 	0.7664	0.0941	0.6412	0.045
C 	C 	0.63253	0.05957	0.55957	0.057
H 	H 	0.619	0.0537	0.5537	0.058
C 	C 	0.67303	0.07521	0.57521	0.001
C 	C 	0.6936	0.08428	0.58428	0.007
C 	C 	0.7098	0.09141	0.59141	-0.032
C 	C 	0.7318	0.10107	0.60107	0.067
C 	C 	0.77	0.11774	0.61774	0.002
C 	C 	0.7906	0.12742	0.62742	0.019
C 	C 	0.8081	0.13566	0.63566	-0.082
C 	C 	0.8275	0.14475	0.64475	0.179
O 	O 	0.47664	0.11336	0.58109	-0.357
O 	O 	0.47668	0.13976	0.60686	-0.376
C 	C 	0.46932	0.13304	0.58834	0.342
C 	C 	0.45065	0.14192	0.57797	-0.106
C 	C 	0.44267	0.16238	0.58587	-0.005
H 	H 	0.4494	0.1691	0.5986	0.058
C 	C 	0.4082	0.2397	0.6195	-0.088
H 	H 	0.4202	0.2322	0.6266	0.069
C 	C 	0.3996	0.2599	0.6281	-0.027
H 	H 	0.4059	0.2664	0.6412	0.045
C 	C 	0.44043	0.13253	0.55957	0.057
H 	H 	0.4463	0.119	0.5537	0.058
C 	C 	0.42479	0.17303	0.57521	0.001
C 	C 	0.41572	0.1936	0.58428	0.007
C 	C 	0.40859	0.2098	0.59141	-0.032
C 	C 	0.39893	0.2318	0.60107	0.067
C 	C 	0.38226	0.27	0.61774	0.002
C 	C 	0.37258	0.2906	0.62742	0.019
C 	C 	0.36434	0.3081	0.63566	-0.082
C 	C 	0.35525	0.3275	0.64475	0.179
C 	C 	0.364	0.33598	0.66402	-0.233
H 	H 	0.376	0.3286	0.6714	0.116
O 	O 	0.38664	0.97664	0.58109	-0.357
O 	O 	0.36024	0.97668	0.60686	-0.376
C 	C 	0.36696	0.96932	0.58834	0.342
C 	C 	0.35808	0.95065	0.57797	-0.106
C 	C 	0.33762	0.94267	0.58587	-0.005
H 	H 	0.3309	0.9494	0.5986	0.058
C 	C 	0.2603	0.9082	0.6195	-0.088
H 	H 	0.2678	0.9202	0.6266	0.069
C 	C 	0.2401	0.8996	0.6281	-0.027
H 	H 	0.2336	0.9059	0.6412	0.045
C 	C 	0.36747	0.94043	0.55957	0.057
H 	H 	0.381	0.9463	0.5537	0.058
C 	C 	0.32697	0.92479	0.57521	0.001
C 	C 	0.3064	0.91572	0.58428	0.007
C 	C 	0.2902	0.90859	0.59141	-0.032
C 	C 	0.2682	0.89893	0.60107	0.067
C 	C 	0.23	0.88226	0.61774	0.002
C 	C 	0.2094	0.87258	0.62742	0.019
C 	C 	0.1919	0.86434	0.63566	-0.082
C 	C 	0.1725	0.85525	0.64475	0.179
O 	O 	0.52336	0.88664	0.58109	-0.357
O 	O 	0.52332	0.86024	0.60686	-0.376
C 	C 	0.53068	0.86696	0.58834	0.342
C 	C 	0.54935	0.85808	0.57797	-0.106
C 	C 	0.55733	0.83762	0.58587	-0.005
H 	H 	0.5506	0.8309	0.5986	0.058
C 	C 	0.5918	0.7603	0.6195	-0.088
H 	H 	0.5798	0.7678	0.6266	0.069
C 	C 	0.6004	0.7401	0.6281	-0.027
H 	H 	0.5941	0.7336	0.6412	0.045
C 	C 	0.55957	0.86747	0.55957	0.057
H 	H 	0.5537	0.881	0.5537	0.058
C 	C 	0.57521	0.82697	0.57521	0.001
C 	C 	0.58428	0.8064	0.58428	0.007
C 	C 	0.59141	0.7902	0.59141	-0.032
C 	C 	0.60107	0.7682	0.60107	0.067
C 	C 	0.61774	0.73	0.61774	0.002
C 	C 	0.62742	0.7094	0.62742	0.019
C 	C 	0.63566	0.6919	0.63566	-0.082
C 	C 	0.64475	0.6725	0.64475	0.179
C 	C 	0.636	0.66402	0.66402	-0.233
H 	H 	0.624	0.6714	0.6714	0.116
O 	O 	0.61336	0.97664	0.41891	-0.357
O 	O 	0.63976	0.97668	0.39314	-0.376
C 	C 	0.63304	0.96932	0.41166	0.342
C 	C 	0.64192	0.95065	0.42203	-0.106
C 	C 	0.66238	0.94267	0.41413	-0.005
H 	H 	0.6691	0.9494	0.4014	0.058
C 	C 	0.7397	0.9082	0.3805	-0.088
H 	H 	0.7322	0.9202	0.3734	0.069
C 	C 	0.7599	0.8996	0.3719	-0.027
H 	H 	0.7664	0.9059	0.3588	0.045
C 	C 	0.63253	0.94043	0.44043	0.057
H 	H 	0.619	0.9463	0.4463	0.058
C 	C 	0.67303	0.92479	0.42479	0.001
C 	C 	0.6936	0.91572	0.41572	0.007
C 	C 	0.7098	0.90859	0.40859	-0.032
C 	C 	0.7318	0.89893	0.39893	0.067
C 	C 	0.77	0.88226	0.38226	0.002
C 	C 	0.7906	0.87258	0.37258	0.019
C 	C 	0.8081	0.86434	0.36434	-0.082
C 	C 	0.8275	0.85525	0.35525	0.179
O 	O 	0.52336	0.11336	0.41891	-0.357
O 	O 	0.52332	0.13976	0.39314	-0.376
C 	C 	0.53068	0.13304	0.41166	0.342
C 	C 	0.54935	0.14192	0.42203	-0.106
C 	C 	0.55733	0.16238	0.41413	-0.005
H 	H 	0.5506	0.1691	0.4014	0.058
C 	C 	0.5918	0.2397	0.3805	-0.088
H 	H 	0.5798	0.2322	0.3734	0.069
C 	C 	0.6004	0.2599	0.3719	-0.027
H 	H 	0.5941	0.2664	0.3588	0.045
C 	C 	0.55957	0.13253	0.44043	0.057
H 	H 	0.5537	0.119	0.4463	0.058
C 	C 	0.57521	0.17303	0.42479	0.001
C 	C 	0.58428	0.1936	0.41572	0.007
C 	C 	0.59141	0.2098	0.40859	-0.032
C 	C 	0.60107	0.2318	0.39893	0.067
C 	C 	0.61774	0.27	0.38226	0.002
C 	C 	0.62742	0.2906	0.37258	0.019
C 	C 	0.63566	0.3081	0.36434	-0.082
C 	C 	0.64475	0.3275	0.35525	0.179
C 	C 	0.636	0.33598	0.33598	-0.233
H 	H 	0.624	0.3286	0.3286	0.116
O 	O 	0.38664	0.02336	0.41891	-0.357
O 	O 	0.36024	0.02332	0.39314	-0.376
C 	C 	0.36696	0.03068	0.41166	0.342
C 	C 	0.35808	0.04935	0.42203	-0.106
C 	C 	0.33762	0.05733	0.41413	-0.005
H 	H 	0.3309	0.0506	0.4014	0.058
C 	C 	0.2603	0.0918	0.3805	-0.088
H 	H 	0.2678	0.0798	0.3734	0.069
C 	C 	0.2401	0.1004	0.3719	-0.027
H 	H 	0.2336	0.0941	0.3588	0.045
C 	C 	0.36747	0.05957	0.44043	0.057
H 	H 	0.381	0.0537	0.4463	0.058
C 	C 	0.32697	0.07521	0.42479	0.001
C 	C 	0.3064	0.08428	0.41572	0.007
C 	C 	0.2902	0.09141	0.40859	-0.032
C 	C 	0.2682	0.10107	0.39893	0.067
C 	C 	0.23	0.11774	0.38226	0.002
C 	C 	0.2094	0.12742	0.37258	0.019
C 	C 	0.1919	0.13566	0.36434	-0.082
C 	C 	0.1725	0.14475	0.35525	0.179
O 	O 	0.47664	0.88664	0.41891	-0.357
O 	O 	0.47668	0.86024	0.39314	-0.376
C 	C 	0.46932	0.86696	0.41166	0.342
C 	C 	0.45065	0.85808	0.42203	-0.106
C 	C 	0.44267	0.83762	0.41413	-0.005
H 	H 	0.4494	0.8309	0.4014	0.058
C 	C 	0.4082	0.7603	0.3805	-0.088
H 	H 	0.4202	0.7678	0.3734	0.069
C 	C 	0.3996	0.7401	0.3719	-0.027
H 	H 	0.4059	0.7336	0.3588	0.045
C 	C 	0.44043	0.86747	0.44043	0.057
H 	H 	0.4463	0.881	0.4463	0.058
C 	C 	0.42479	0.82697	0.42479	0.001
C 	C 	0.41572	0.8064	0.41572	0.007
C 	C 	0.40859	0.7902	0.40859	-0.032
C 	C 	0.39893	0.7682	0.39893	0.067
C 	C 	0.38226	0.73	0.38226	0.002
C 	C 	0.37258	0.7094	0.37258	0.019
C 	C 	0.36434	0.6919	0.36434	-0.082
C 	C 	0.35525	0.6725	0.35525	0.179
C 	C 	0.364	0.66402	0.33598	-0.233
H 	H 	0.376	0.6714	0.3286	0.116
Cu	Cu	0.594635	0.094635	0.5	0.928
Cu	Cu	0.625943	0.125943	0.5	0.926
O 	O 	0.58109	0.11336	0.52336	-0.357
O 	O 	0.60686	0.13976	0.52332	-0.376
O 	O 	0.56936	0.06936	0.5	-0.178
O 	O 	0.65112	0.15112	0.5	-0.212
C 	C 	0.58834	0.13304	0.53068	0.342
C 	C 	0.57797	0.14192	0.54935	-0.106
C 	C 	0.58587	0.16238	0.55733	-0.005
H 	H 	0.5986	0.1691	0.5506	0.058
C 	C 	0.6195	0.2397	0.5918	-0.088
H 	H 	0.6266	0.2322	0.5798	0.069
C 	C 	0.6281	0.2599	0.6004	-0.027
H 	H 	0.6412	0.2664	0.5941	0.045
C 	C 	0.55957	0.13253	0.55957	0.057
H 	H 	0.5537	0.119	0.5537	0.058
C 	C 	0.57521	0.17303	0.57521	0.001
C 	C 	0.58428	0.1936	0.58428	0.007
C 	C 	0.59141	0.2098	0.59141	-0.032
C 	C 	0.60107	0.2318	0.60107	0.067
C 	C 	0.61774	0.27	0.61774	0.002
C 	C 	0.62742	0.2906	0.62742	0.019
C 	C 	0.63566	0.3081	0.63566	-0.082
C 	C 	0.64475	0.3275	0.64475	0.179
Cu	Cu	0.594635	0.905365	0.5	0.928
Cu	Cu	0.625943	0.874057	0.5	0.926
O 	O 	0.58109	0.88664	0.47664	-0.357
O 	O 	0.60686	0.86024	0.47668	-0.376
O 	O 	0.56936	0.93064	0.5	-0.178
O 	O 	0.65112	0.84888	0.5	-0.212
C 	C 	0.58834	0.86696	0.46932	0.342
C 	C 	0.57797	0.85808	0.45065	-0.106
C 	C 	0.58587	0.83762	0.44267	-0.005
H 	H 	0.5986	0.8309	0.4494	0.058
C 	C 	0.6195	0.7603	0.4082	-0.088
H 	H 	0.6266	0.7678	0.4202	0.069
C 	C 	0.6281	0.7401	0.3996	-0.027
H 	H 	0.6412	0.7336	0.4059	0.045
C 	C 	0.55957	0.86747	0.44043	0.057
H 	H 	0.5537	0.881	0.4463	0.058
C 	C 	0.57521	0.82697	0.42479	0.001
C 	C 	0.58428	0.8064	0.41572	0.007
C 	C 	0.59141	0.7902	0.40859	-0.032
C 	C 	0.60107	0.7682	0.39893	0.067
C 	C 	0.61774	0.73	0.38226	0.002
C 	C 	0.62742	0.7094	0.37258	0.019
C 	C 	0.63566	0.6919	0.36434	-0.082
C 	C 	0.64475	0.6725	0.35525	0.179
O 	O 	0.61336	0.08109	0.47664	-0.357
O 	O 	0.63976	0.10686	0.47668	-0.376
C 	C 	0.63304	0.08834	0.46932	0.342
C 	C 	0.64192	0.07797	0.45065	-0.106
C 	C 	0.66238	0.08587	0.44267	-0.005
H 	H 	0.6691	0.0986	0.4494	0.058
C 	C 	0.7397	0.1195	0.4082	-0.088
H 	H 	0.7322	0.1266	0.4202	0.069
C 	C 	0.7599	0.1281	0.3996	-0.027
H 	H 	0.7664	0.1412	0.4059	0.045
C 	C 	0.63253	0.05957	0.44043	0.057
H 	H 	0.619	0.0537	0.4463	0.058
C 	C 	0.67303	0.07521	0.42479	0.001
C 	C 	0.6936	0.08428	0.41572	0.007
C 	C 	0.7098	0.09141	0.40859	-0.032
C 	C 	0.7318	0.10107	0.39893	0.067
C 	C 	0.77	0.11774	0.38226	0.002
C 	C 	0.7906	0.12742	0.37258	0.019
C 	C 	0.8081	0.13566	0.36434	-0.082
C 	C 	0.8275	0.14475	0.35525	0.179
Cu	Cu	0.405365	0.094635	0.5	0.928
Cu	Cu	0.374057	0.125943	0.5	0.926
O 	O 	0.41891	0.11336	0.47664	-0.357
O 	O 	0.39314	0.13976	0.47668	-0.376
O 	O 	0.43064	0.06936	0.5	-0.178
O 	O 	0.34888	0.15112	0.5	-0.212
C 	C 	0.41166	0.13304	0.46932	0.342
C 	C 	0.42203	0.14192	0.45065	-0.106
C 	C 	0.41413	0.16238	0.44267	-0.005
H 	H 	0.4014	0.1691	0.4494	0.058
C 	C 	0.3805	0.2397	0.4082	-0.088
H 	H 	0.3734	0.2322	0.4202	0.069
C 	C 	0.3719	0.2599	0.3996	-0.027
H 	H 	0.3588	0.2664	0.4059	0.045
C 	C 	0.44043	0.13253	0.44043	0.057
H 	H 	0.4463	0.119	0.4463	0.058
C 	C 	0.42479	0.17303	0.42479	0.001
C 	C 	0.41572	0.1936	0.41572	0.007
C 	C 	0.40859	0.2098	0.40859	-0.032
C 	C 	0.39893	0.2318	0.39893	0.067
C 	C 	0.38226	0.27	0.38226	0.002
C 	C 	0.37258	0.2906	0.37258	0.019
C 	C 	0.36434	0.3081	0.36434	-0.082
C 	C 	0.35525	0.3275	0.35525	0.179
Cu	Cu	0.405365	0.905365	0.5	0.928
Cu	Cu	0.374057	0.874057	0.5	0.926
O 	O 	0.38664	0.91891	0.47664	-0.357
O 	O 	0.36024	0.89314	0.47668	-0.376
O 	O 	0.43064	0.93064	0.5	-0.178
O 	O 	0.34888	0.84888	0.5	-0.212
C 	C 	0.36696	0.91166	0.46932	0.342
C 	C 	0.35808	0.92203	0.45065	-0.106
C 	C 	0.33762	0.91413	0.44267	-0.005
H 	H 	0.3309	0.9014	0.4494	0.058
C 	C 	0.2603	0.8805	0.4082	-0.088
H 	H 	0.2678	0.8734	0.4202	0.069
C 	C 	0.2401	0.8719	0.3996	-0.027
H 	H 	0.2336	0.8588	0.4059	0.045
C 	C 	0.36747	0.94043	0.44043	0.057
H 	H 	0.381	0.9463	0.4463	0.058
C 	C 	0.32697	0.92479	0.42479	0.001
C 	C 	0.3064	0.91572	0.41572	0.007
C 	C 	0.2902	0.90859	0.40859	-0.032
C 	C 	0.2682	0.89893	0.39893	0.067
C 	C 	0.23	0.88226	0.38226	0.002
C 	C 	0.2094	0.87258	0.37258	0.019
C 	C 	0.1919	0.86434	0.36434	-0.082
C 	C 	0.1725	0.85525	0.35525	0.179
O 	O 	0.41891	0.88664	0.52336	-0.357
O 	O 	0.39314	0.86024	0.52332	-0.376
C 	C 	0.41166	0.86696	0.53068	0.342
C 	C 	0.42203	0.85808	0.54935	-0.106
C 	C 	0.41413	0.83762	0.55733	-0.005
H 	H 	0.4014	0.8309	0.5506	0.058
C 	C 	0.3805	0.7603	0.5918	-0.088
H 	H 	0.3734	0.7678	0.5798	0.069
C 	C 	0.3719	0.7401	0.6004	-0.027
H 	H 	0.3588	0.7336	0.5941	0.045
C 	C 	0.44043	0.86747	0.55957	0.057
H 	H 	0.4463	0.881	0.5537	0.058
C 	C 	0.42479	0.82697	0.57521	0.001
C 	C 	0.41572	0.8064	0.58428	0.007
C 	C 	0.40859	0.7902	0.59141	-0.032
C 	C 	0.39893	0.7682	0.60107	0.067
C 	C 	0.38226	0.73	0.61774	0.002
C 	C 	0.37258	0.7094	0.62742	0.019
C 	C 	0.36434	0.6919	0.63566	-0.082
C 	C 	0.35525	0.6725	0.64475	0.179
O 	O 	0.61336	0.91891	0.52336	-0.357
O 	O 	0.63976	0.89314	0.52332	-0.376
C 	C 	0.63304	0.91166	0.53068	0.342
C 	C 	0.64192	0.92203	0.54935	-0.106
C 	C 	0.66238	0.91413	0.55733	-0.005
H 	H 	0.6691	0.9014	0.5506	0.058
C 	C 	0.7397	0.8805	0.5918	-0.088
H 	H 	0.7322	0.8734	0.5798	0.069
C 	C 	0.7599	0.8719	0.6004	-0.027
H 	H 	0.7664	0.8588	0.5941	0.045
C 	C 	0.63253	0.94043	0.55957	0.057
H 	H 	0.619	0.9463	0.5537	0.058
C 	C 	0.67303	0.92479	0.57521	0.001
C 	C 	0.6936	0.91572	0.58428	0.007
C 	C 	0.7098	0.90859	0.59141	-0.032
C 	C 	0.7318	0.89893	0.60107	0.067
C 	C 	0.77	0.88226	0.61774	0.002
C 	C 	0.7906	0.87258	0.62742	0.019
C 	C 	0.8081	0.86434	0.63566	-0.082
C 	C 	0.8275	0.85525	0.64475	0.179
O 	O 	0.38664	0.08109	0.52336	-0.357
O 	O 	0.36024	0.10686	0.52332	-0.376
C 	C 	0.36696	0.08834	0.53068	0.342
C 	C 	0.35808	0.07797	0.54935	-0.106
C 	C 	0.33762	0.08587	0.55733	-0.005
H 	H 	0.3309	0.0986	0.5506	0.058
C 	C 	0.2603	0.1195	0.5918	-0.088
H 	H 	0.2678	0.1266	0.5798	0.069
C 	C 	0.2401	0.1281	0.6004	-0.027
H 	H 	0.2336	0.1412	0.5941	0.045
C 	C 	0.36747	0.05957	0.55957	0.057
H 	H 	0.381	0.0537	0.5537	0.058
C 	C 	0.32697	0.07521	0.57521	0.001
C 	C 	0.3064	0.08428	0.58428	0.007
C 	C 	0.2902	0.09141	0.59141	-0.032
C 	C 	0.2682	0.10107	0.60107	0.067
C 	C 	0.23	0.11774	0.61774	0.002
C 	C 	0.2094	0.12742	0.62742	0.019
C 	C 	0.1919	0.13566	0.63566	-0.082
C 	C 	0.1725	0.14475	0.64475	0.179
O 	O 	0.47664	0.91891	0.38664	-0.357
O 	O 	0.47668	0.89314	0.36024	-0.376
C 	C 	0.46932	0.91166	0.36696	0.342
C 	C 	0.45065	0.92203	0.35808	-0.106
C 	C 	0.44267	0.91413	0.33762	-0.005
H 	H 	0.4494	0.9014	0.3309	0.058
C 	C 	0.4082	0.8805	0.2603	-0.088
H 	H 	0.4202	0.8734	0.2678	0.069
C 	C 	0.3996	0.8719	0.2401	-0.027
H 	H 	0.4059	0.8588	0.2336	0.045
C 	C 	0.364	0.83598	0.16402	-0.233
H 	H 	0.376	0.8286	0.1714	0.116
O 	O 	0.58109	0.97664	0.38664	-0.357
O 	O 	0.60686	0.97668	0.36024	-0.376
C 	C 	0.58834	0.96932	0.36696	0.342
C 	C 	0.57797	0.95065	0.35808	-0.106
C 	C 	0.58587	0.94267	0.33762	-0.005
H 	H 	0.5986	0.9494	0.3309	0.058
C 	C 	0.6195	0.9082	0.2603	-0.088
H 	H 	0.6266	0.9202	0.2678	0.069
C 	C 	0.6281	0.8996	0.2401	-0.027
H 	H 	0.6412	0.9059	0.2336	0.045
O 	O 	0.52336	0.08109	0.38664	-0.357
O 	O 	0.52332	0.10686	0.36024	-0.376
C 	C 	0.53068	0.08834	0.36696	0.342
C 	C 	0.54935	0.07797	0.35808	-0.106
C 	C 	0.55733	0.08587	0.33762	-0.005
H 	H 	0.5506	0.0986	0.3309	0.058
C 	C 	0.5918	0.1195	0.2603	-0.088
H 	H 	0.5798	0.1266	0.2678	0.069
C 	C 	0.6004	0.1281	0.2401	-0.027
H 	H 	0.5941	0.1412	0.2336	0.045
C 	C 	0.636	0.16402	0.16402	-0.233
H 	H 	0.624	0.1714	0.1714	0.116
O 	O 	0.41891	0.02336	0.38664	-0.357
O 	O 	0.39314	0.02332	0.36024	-0.376
C 	C 	0.41166	0.03068	0.36696	0.342
C 	C 	0.42203	0.04935	0.35808	-0.106
C 	C 	0.41413	0.05733	0.33762	-0.005
H 	H 	0.4014	0.0506	0.3309	0.058
C 	C 	0.3805	0.0918	0.2603	-0.088
H 	H 	0.3734	0.0798	0.2678	0.069
C 	C 	0.3719	0.1004	0.2401	-0.027
H 	H 	0.3588	0.0941	0.2336	0.045
O 	O 	0.47664	0.08109	0.61336	-0.357
O 	O 	0.47668	0.10686	0.63976	-0.376
C 	C 	0.46932	0.08834	0.63304	0.342
C 	C 	0.45065	0.07797	0.64192	-0.106
C 	C 	0.44267	0.08587	0.66238	-0.005
H 	H 	0.4494	0.0986	0.6691	0.058
C 	C 	0.4082	0.1195	0.7397	-0.088
H 	H 	0.4202	0.1266	0.7322	0.069
C 	C 	0.3996	0.1281	0.7599	-0.027
H 	H 	0.4059	0.1412	0.7664	0.045
C 	C 	0.364	0.16402	0.83598	-0.233
H 	H 	0.376	0.1714	0.8286	0.116
O 	O 	0.41891	0.97664	0.61336	-0.357
O 	O 	0.39314	0.97668	0.63976	-0.376
C 	C 	0.41166	0.96932	0.63304	0.342
C 	C 	0.42203	0.95065	0.64192	-0.106
C 	C 	0.41413	0.94267	0.66238	-0.005
H 	H 	0.4014	0.9494	0.6691	0.058
C 	C 	0.3805	0.9082	0.7397	-0.088
H 	H 	0.3734	0.9202	0.7322	0.069
C 	C 	0.3719	0.8996	0.7599	-0.027
H 	H 	0.3588	0.9059	0.7664	0.045
O 	O 	0.52336	0.91891	0.61336	-0.357
O 	O 	0.52332	0.89314	0.63976	-0.376
C 	C 	0.53068	0.91166	0.63304	0.342
C 	C 	0.54935	0.92203	0.64192	-0.106
C 	C 	0.55733	0.91413	0.66238	-0.005
H 	H 	0.5506	0.9014	0.6691	0.058
C 	C 	0.5918	0.8805	0.7397	-0.088
H 	H 	0.5798	0.8734	0.7322	0.069
C 	C 	0.6004	0.8719	0.7599	-0.027
H 	H 	0.5941	0.8588	0.7664	0.045
C 	C 	0.636	0.83598	0.83598	-0.233
H 	H 	0.624	0.8286	0.8286	0.116
O 	O 	0.58109	0.02336	0.61336	-0.357
O 	O 	0.60686	0.02332	0.63976	-0.376
C 	C 	0.58834	0.03068	0.63304	0.342
C 	C 	0.57797	0.04935	0.64192	-0.106
C 	C 	0.58587	0.05733	0.66238	-0.005
H 	H 	0.5986	0.0506	0.6691	0.058
C 	C 	0.6195	0.0918	0.7397	-0.088
H 	H 	0.6266	0.0798	0.7322	0.069
C 	C 	0.6281	0.1004	0.7599	-0.027
H 	H 	0.6412	0.0941	0.7664	0.045
O 	O 	0.38664	0.97664	0.41891	-0.357
O 	O 	0.36024	0.97668	0.39314	-0.376
C 	C 	0.36696	0.96932	0.41166	0.342
C 	C 	0.35808	0.95065	0.42203	-0.106
C 	C 	0.33762	0.94267	0.41413	-0.005
H 	H 	0.3309	0.9494	0.4014	0.058
C 	C 	0.2603	0.9082	0.3805	-0.088
H 	H 	0.2678	0.9202	0.3734	0.069
C 	C 	0.2401	0.8996	0.3719	-0.027
H 	H 	0.2336	0.9059	0.3588	0.045
O 	O 	0.52336	0.88664	0.41891	-0.357
O 	O 	0.52332	0.86024	0.39314	-0.376
C 	C 	0.53068	0.86696	0.41166	0.342
C 	C 	0.54935	0.85808	0.42203	-0.106
C 	C 	0.55733	0.83762	0.41413	-0.005
H 	H 	0.5506	0.8309	0.4014	0.058
C 	C 	0.5918	0.7603	0.3805	-0.088
H 	H 	0.5798	0.7678	0.3734	0.069
C 	C 	0.6004	0.7401	0.3719	-0.027
H 	H 	0.5941	0.7336	0.3588	0.045
C 	C 	0.636	0.66402	0.33598	-0.233
H 	H 	0.624	0.6714	0.3286	0.116
O 	O 	0.61336	0.02336	0.41891	-0.357
O 	O 	0.63976	0.02332	0.39314	-0.376
C 	C 	0.63304	0.03068	0.41166	0.342
C 	C 	0.64192	0.04935	0.42203	-0.106
C 	C 	0.66238	0.05733	0.41413	-0.005
H 	H 	0.6691	0.0506	0.4014	0.058
C 	C 	0.7397	0.0918	0.3805	-0.088
H 	H 	0.7322	0.0798	0.3734	0.069
C 	C 	0.7599	0.1004	0.3719	-0.027
H 	H 	0.7664	0.0941	0.3588	0.045
O 	O 	0.47664	0.11336	0.41891	-0.357
O 	O 	0.47668	0.13976	0.39314	-0.376
C 	C 	0.46932	0.13304	0.41166	0.342
C 	C 	0.45065	0.14192	0.42203	-0.106
C 	C 	0.44267	0.16238	0.41413	-0.005
H 	H 	0.4494	0.1691	0.4014	0.058
C 	C 	0.4082	0.2397	0.3805	-0.088
H 	H 	0.4202	0.2322	0.3734	0.069
C 	C 	0.3996	0.2599	0.3719	-0.027
H 	H 	0.4059	0.2664	0.3588	0.045
C 	C 	0.364	0.33598	0.33598	-0.233
H 	H 	0.376	0.3286	0.3286	0.116
O 	O 	0.38664	0.02336	0.58109	-0.357
O 	O 	0.36024	0.02332	0.60686	-0.376
C 	C 	0.36696	0.03068	0.58834	0.342
C 	C 	0.35808	0.04935	0.57797	-0.106
C 	C 	0.33762	0.05733	0.58587	-0.005
H 	H 	0.3309	0.0506	0.5986	0.058
C 	C 	0.2603	0.0918	0.6195	-0.088
H 	H 	0.2678	0.0798	0.6266	0.069
C 	C 	0.2401	0.1004	0.6281	-0.027
H 	H 	0.2336	0.0941	0.6412	0.045
O 	O 	0.47664	0.88664	0.58109	-0.357
O 	O 	0.47668	0.86024	0.60686	-0.376
C 	C 	0.46932	0.86696	0.58834	0.342
C 	C 	0.45065	0.85808	0.57797	-0.106
C 	C 	0.44267	0.83762	0.58587	-0.005
H 	H 	0.4494	0.8309	0.5986	0.058
C 	C 	0.4082	0.7603	0.6195	-0.088
H 	H 	0.4202	0.7678	0.6266	0.069
C 	C 	0.3996	0.7401	0.6281	-0.027
H 	H 	0.4059	0.7336	0.6412	0.045
C 	C 	0.364	0.66402	0.66402	-0.233
H 	H 	0.376	0.6714	0.6714	0.116
O 	O 	0.61336	0.97664	0.58109	-0.357
O 	O 	0.63976	0.97668	0.60686	-0.376
C 	C 	0.63304	0.96932	0.58834	0.342
C 	C 	0.64192	0.95065	0.57797	-0.106
C 	C 	0.66238	0.94267	0.58587	-0.005
H 	H 	0.6691	0.9494	0.5986	0.058
C 	C 	0.7397	0.9082	0.6195	-0.088
H 	H 	0.7322	0.9202	0.6266	0.069
C 	C 	0.7599	0.8996	0.6281	-0.027
H 	H 	0.7664	0.9059	0.6412	0.045
O 	O 	0.52336	0.11336	0.58109	-0.357
O 	O 	0.52332	0.13976	0.60686	-0.376
C 	C 	0.53068	0.13304	0.58834	0.342
C 	C 	0.54935	0.14192	0.57797	-0.106
C 	C 	0.55733	0.16238	0.58587	-0.005
H 	H 	0.5506	0.1691	0.5986	0.058
C 	C 	0.5918	0.2397	0.6195	-0.088
H 	H 	0.5798	0.2322	0.6266	0.069
C 	C 	0.6004	0.2599	0.6281	-0.027
H 	H 	0.5941	0.2664	0.6412	0.045
C 	C 	0.636	0.33598	0.66402	-0.233
H 	H 	0.624	0.3286	0.6714	0.116
O 	O 	0.41891	0.88664	0.47664	-0.357
O 	O 	0.39314	0.86024	0.47668	-0.376
C 	C 	0.41166	0.86696	0.46932	0.342
C 	C 	0.42203	0.85808	0.45065	-0.106
C 	C 	0.41413	0.83762	0.44267	-0.005
H 	H 	0.4014	0.8309	0.4494	0.058
C 	C 	0.3805	0.7603	0.4082	-0.088
H 	H 	0.3734	0.7678	0.4202	0.069
C 	C 	0.3719	0.7401	0.3996	-0.027
H 	H 	0.3588	0.7336	0.4059	0.045
O 	O 	0.41891	0.11336	0.52336	-0.357
O 	O 	0.39314	0.13976	0.52332	-0.376
C 	C 	0.41166	0.13304	0.53068	0.342
C 	C 	0.42203	0.14192	0.54935	-0.106
C 	C 	0.41413	0.16238	0.55733	-0.005
H 	H 	0.4014	0.1691	0.5506	0.058
C 	C 	0.3805	0.2397	0.5918	-0.088
H 	H 	0.3734	0.2322	0.5798	0.069
C 	C 	0.3719	0.2599	0.6004	-0.027
H 	H 	0.3588	0.2664	0.5941	0.045
O 	O 	0.38664	0.91891	0.52336	-0.357
O 	O 	0.36024	0.89314	0.52332	-0.376
C 	C 	0.36696	0.91166	0.53068	0.342
C 	C 	0.35808	0.92203	0.54935	-0.106
C 	C 	0.33762	0.91413	0.55733	-0.005
H 	H 	0.3309	0.9014	0.5506	0.058
C 	C 	0.2603	0.8805	0.5918	-0.088
H 	H 	0.2678	0.8734	0.5798	0.069
C 	C 	0.2401	0.8719	0.6004	-0.027
H 	H 	0.2336	0.8588	0.5941	0.045
O 	O 	0.58109	0.88664	0.52336	-0.357
O 	O 	0.60686	0.86024	0.52332	-0.376
C 	C 	0.58834	0.86696	0.53068	0.342
C 	C 	0.57797	0.85808	0.54935	-0.106
C 	C 	0.58587	0.83762	0.55733	-0.005
H 	H 	0.5986	0.8309	0.5506	0.058
C 	C 	0.6195	0.7603	0.5918	-0.088
H 	H 	0.6266	0.7678	0.5798	0.069
C 	C 	0.6281	0.7401	0.6004	-0.027
H 	H 	0.6412	0.7336	0.5941	0.045
O 	O 	0.61336	0.08109	0.52336	-0.357
O 	O 	0.63976	0.10686	0.52332	-0.376
C 	C 	0.63304	0.08834	0.53068	0.342
C 	C 	0.64192	0.07797	0.54935	-0.106
C 	C 	0.66238	0.08587	0.55733	-0.005
H 	H 	0.6691	0.0986	0.5506	0.058
C 	C 	0.7397	0.1195	0.5918	-0.088
H 	H 	0.7322	0.1266	0.5798	0.069
C 	C 	0.7599	0.1281	0.6004	-0.027
H 	H 	0.7664	0.1412	0.5941	0.045
O 	O 	0.58109	0.11336	0.47664	-0.357
O 	O 	0.60686	0.13976	0.47668	-0.376
C 	C 	0.58834	0.13304	0.46932	0.342
C 	C 	0.57797	0.14192	0.45065	-0.106
C 	C 	0.58587	0.16238	0.44267	-0.005
H 	H 	0.5986	0.1691	0.4494	0.058
C 	C 	0.6195	0.2397	0.4082	-0.088
H 	H 	0.6266	0.2322	0.4202	0.069
C 	C 	0.6281	0.2599	0.3996	-0.027
H 	H 	0.6412	0.2664	0.4059	0.045
O 	O 	0.38664	0.08109	0.47664	-0.357
O 	O 	0.36024	0.10686	0.47668	-0.376
C 	C 	0.36696	0.08834	0.46932	0.342
C 	C 	0.35808	0.07797	0.45065	-0.106
C 	C 	0.33762	0.08587	0.44267	-0.005
H 	H 	0.3309	0.0986	0.4494	0.058
C 	C 	0.2603	0.1195	0.4082	-0.088
H 	H 	0.2678	0.1266	0.4202	0.069
C 	C 	0.2401	0.1281	0.3996	-0.027
H 	H 	0.2336	0.1412	0.4059	0.045
O 	O 	0.61336	0.91891	0.47664	-0.357
O 	O 	0.63976	0.89314	0.47668	-0.376
C 	C 	0.63304	0.91166	0.46932	0.342
C 	C 	0.64192	0.92203	0.45065	-0.106
C 	C 	0.66238	0.91413	0.44267	-0.005
H 	H 	0.6691	0.9014	0.4494	0.058
C 	C 	0.7397	0.8805	0.4082	-0.088
H 	H 	0.7322	0.8734	0.4202	0.069
C 	C 	0.7599	0.8719	0.3996	-0.027
H 	H 	0.7664	0.8588	0.4059	0.045
Cu	Cu	0.5	0.594635	0.094635	0.928
Cu	Cu	0.5	0.625943	0.125943	0.926
O 	O 	0.52336	0.58109	0.11336	-0.357
O 	O 	0.52332	0.60686	0.13976	-0.376
O 	O 	0.5	0.56936	0.06936	-0.178
O 	O 	0.5	0.65112	0.15112	-0.212
C 	C 	0.53068	0.58834	0.13304	0.342
C 	C 	0.54935	0.57797	0.14192	-0.106
C 	C 	0.55733	0.58587	0.16238	-0.005
H 	H 	0.5506	0.5986	0.1691	0.058
C 	C 	0.5918	0.6195	0.2397	-0.088
H 	H 	0.5798	0.6266	0.2322	0.069
C 	C 	0.6004	0.6281	0.2599	-0.027
H 	H 	0.5941	0.6412	0.2664	0.045
C 	C 	0.55957	0.55957	0.13253	0.057
H 	H 	0.5537	0.5537	0.119	0.058
C 	C 	0.57521	0.57521	0.17303	0.001
C 	C 	0.58428	0.58428	0.1936	0.007
C 	C 	0.59141	0.59141	0.2098	-0.032
C 	C 	0.60107	0.60107	0.2318	0.067
C 	C 	0.61774	0.61774	0.27	0.002
C 	C 	0.62742	0.62742	0.2906	0.019
C 	C 	0.63566	0.63566	0.3081	-0.082
C 	C 	0.64475	0.64475	0.3275	0.179
Cu	Cu	0.405365	0.5	0.094635	0.928
Cu	Cu	0.374057	0.5	0.125943	0.926
O 	O 	0.41891	0.52336	0.11336	-0.357
O 	O 	0.39314	0.52332	0.13976	-0.376
O 	O 	0.43064	0.5	0.06936	-0.178
O 	O 	0.34888	0.5	0.15112	-0.212
C 	C 	0.41166	0.53068	0.13304	0.342
C 	C 	0.42203	0.54935	0.14192	-0.106
C 	C 	0.41413	0.55733	0.16238	-0.005
H 	H 	0.4014	0.5506	0.1691	0.058
C 	C 	0.3805	0.5918	0.2397	-0.088
H 	H 	0.3734	0.5798	0.2322	0.069
C 	C 	0.3719	0.6004	0.2599	-0.027
H 	H 	0.3588	0.5941	0.2664	0.045
C 	C 	0.44043	0.55957	0.13253	0.057
H 	H 	0.4463	0.5537	0.119	0.058
C 	C 	0.42479	0.57521	0.17303	0.001
C 	C 	0.41572	0.58428	0.1936	0.007
C 	C 	0.40859	0.59141	0.2098	-0.032
C 	C 	0.39893	0.60107	0.2318	0.067
C 	C 	0.38226	0.61774	0.27	0.002
C 	C 	0.37258	0.62742	0.2906	0.019
C 	C 	0.36434	0.63566	0.3081	-0.082
C 	C 	0.35525	0.64475	0.3275	0.179
Cu	Cu	0.5	0.405365	0.094635	0.928
Cu	Cu	0.5	0.374057	0.125943	0.926
O 	O 	0.47664	0.41891	0.11336	-0.357
O 	O 	0.47668	0.39314	0.13976	-0.376
O 	O 	0.5	0.43064	0.06936	-0.178
O 	O 	0.5	0.34888	0.15112	-0.212
C 	C 	0.46932	0.41166	0.13304	0.342
C 	C 	0.45065	0.42203	0.14192	-0.106
C 	C 	0.44267	0.41413	0.16238	-0.005
H 	H 	0.4494	0.4014	0.1691	0.058
C 	C 	0.4082	0.3805	0.2397	-0.088
H 	H 	0.4202	0.3734	0.2322	0.069
C 	C 	0.3996	0.3719	0.2599	-0.027
H 	H 	0.4059	0.3588	0.2664	0.045
C 	C 	0.44043	0.44043	0.13253	0.057
H 	H 	0.4463	0.4463	0.119	0.058
C 	C 	0.42479	0.42479	0.17303	0.001
C 	C 	0.41572	0.41572	0.1936	0.007
C 	C 	0.40859	0.40859	0.2098	-0.032
C 	C 	0.39893	0.39893	0.2318	0.067
C 	C 	0.38226	0.38226	0.27	0.002
C 	C 	0.37258	0.37258	0.2906	0.019
C 	C 	0.36434	0.36434	0.3081	-0.082
C 	C 	0.35525	0.35525	0.3275	0.179
Cu	Cu	0.594635	0.5	0.094635	0.928
Cu	Cu	0.625943	0.5	0.125943	0.926
O 	O 	0.58109	0.47664	0.11336	-0.357
O 	O 	0.60686	0.47668	0.13976	-0.376
O 	O 	0.56936	0.5	0.06936	-0.178
O 	O 	0.65112	0.5	0.15112	-0.212
C 	C 	0.58834	0.46932	0.13304	0.342
C 	C 	0.57797	0.45065	0.14192	-0.106
C 	C 	0.58587	0.44267	0.16238	-0.005
H 	H 	0.5986	0.4494	0.1691	0.058
C 	C 	0.6195	0.4082	0.2397	-0.088
H 	H 	0.6266	0.4202	0.2322	0.069
C 	C 	0.6281	0.3996	0.2599	-0.027
H 	H 	0.6412	0.4059	0.2664	0.045
C 	C 	0.55957	0.44043	0.13253	0.057
H 	H 	0.5537	0.4463	0.119	0.058
C 	C 	0.57521	0.42479	0.17303	0.001
C 	C 	0.58428	0.41572	0.1936	0.007
C 	C 	0.59141	0.40859	0.2098	-0.032
C 	C 	0.60107	0.39893	0.2318	0.067
C 	C 	0.61774	0.38226	0.27	0.002
C 	C 	0.62742	0.37258	0.2906	0.019
C 	C 	0.63566	0.36434	0.3081	-0.082
C 	C 	0.64475	0.35525	0.3275	0.179
Cu	Cu	0.5	0.405365	0.905365	0.928
Cu	Cu	0.5	0.374057	0.874057	0.926
O 	O 	0.52336	0.41891	0.88664	-0.357
O 	O 	0.52332	0.39314	0.86024	-0.376
O 	O 	0.5	0.43064	0.93064	-0.178
O 	O 	0.5	0.34888	0.84888	-0.212
C 	C 	0.53068	0.41166	0.86696	0.342
C 	C 	0.54935	0.42203	0.85808	-0.106
C 	C 	0.55733	0.41413	0.83762	-0.005
H 	H 	0.5506	0.4014	0.8309	0.058
C 	C 	0.5918	0.3805	0.7603	-0.088
H 	H 	0.5798	0.3734	0.7678	0.069
C 	C 	0.6004	0.3719	0.7401	-0.027
H 	H 	0.5941	0.3588	0.7336	0.045
C 	C 	0.55957	0.44043	0.86747	0.057
H 	H 	0.5537	0.4463	0.881	0.058
C 	C 	0.57521	0.42479	0.82697	0.001
C 	C 	0.58428	0.41572	0.8064	0.007
C 	C 	0.59141	0.40859	0.7902	-0.032
C 	C 	0.60107	0.39893	0.7682	0.067
C 	C 	0.61774	0.38226	0.73	0.002
C 	C 	0.62742	0.37258	0.7094	0.019
C 	C 	0.63566	0.36434	0.6919	-0.082
C 	C 	0.64475	0.35525	0.6725	0.179
Cu	Cu	0.594635	0.5	0.905365	0.928
Cu	Cu	0.625943	0.5	0.874057	0.926
O 	O 	0.58109	0.52336	0.88664	-0.357
O 	O 	0.60686	0.52332	0.86024	-0.376
O 	O 	0.56936	0.5	0.93064	-0.178
O 	O 	0.65112	0.5	0.84888	-0.212
C 	C 	0.58834	0.53068	0.86696	0.342
C 	C 	0.57797	0.54935	0.85808	-0.106
C 	C 	0.58587	0.55733	0.83762	-0.005
H 	H 	0.5986	0.5506	0.8309	0.058
C 	C 	0.6195	0.5918	0.7603	-0.088
H 	H 	0.6266	0.5798	0.7678	0.069
C 	C 	0.6281	0.6004	0.7401	-0.027
H 	H 	0.6412	0.5941	0.7336	0.045
C 	C 	0.55957	0.55957	0.86747	0.057
H 	H 	0.5537	0.5537	0.881	0.058
C 	C 	0.57521	0.57521	0.82697	0.001
C 	C 	0.58428	0.58428	0.8064	0.007
C 	C 	0.59141	0.59141	0.7902	-0.032
C 	C 	0.60107	0.60107	0.7682	0.067
C 	C 	0.61774	0.61774	0.73	0.002
C 	C 	0.62742	0.62742	0.7094	0.019
C 	C 	0.63566	0.63566	0.6919	-0.082
C 	C 	0.64475	0.64475	0.6725	0.179
Cu	Cu	0.5	0.594635	0.905365	0.928
Cu	Cu	0.5	0.625943	0.874057	0.926
O 	O 	0.47664	0.58109	0.88664	-0.357
O 	O 	0.47668	0.60686	0.86024	-0.376
O 	O 	0.5	0.56936	0.93064	-0.178
O 	O 	0.5	0.65112	0.84888	-0.212
C 	C 	0.46932	0.58834	0.86696	0.342
C 	C 	0.45065	0.57797	0.85808	-0.106
C 	C 	0.44267	0.58587	0.83762	-0.005
H 	H 	0.4494	0.5986	0.8309	0.058
C 	C 	0.4082	0.6195	0.7603	-0.088
H 	H 	0.4202	0.6266	0.7678	0.069
C 	C 	0.3996	0.6281	0.7401	-0.027
H 	H 	0.4059	0.6412	0.7336	0.045
C 	C 	0.44043	0.55957	0.86747	0.057
H 	H 	0.4463	0.5537	0.881	0.058
C 	C 	0.42479	0.57521	0.82697	0.001
C 	C 	0.41572	0.58428	0.8064	0.007
C 	C 	0.40859	0.59141	0.7902	-0.032
C 	C 	0.39893	0.60107	0.7682	0.067
C 	C 	0.38226	0.61774	0.73	0.002
C 	C 	0.37258	0.62742	0.7094	0.019
C 	C 	0.36434	0.63566	0.6919	-0.082
C 	C 	0.35525	0.64475	0.6725	0.179
Cu	Cu	0.405365	0.5	0.905365	0.928
Cu	Cu	0.374057	0.5	0.874057	0.926
O 	O 	0.41891	0.47664	0.88664	-0.357
O 	O 	0.39314	0.47668	0.86024	-0.376
O 	O 	0.43064	0.5	0.93064	-0.178
O 	O 	0.34888	0.5	0.84888	-0.212
C 	C 	0.41166	0.46932	0.86696	0.342
C 	C 	0.42203	0.45065	0.85808	-0.106
C 	C 	0.41413	0.44267	0.83762	-0.005
H 	H 	0.4014	0.4494	0.8309	0.058
C 	C 	0.3805	0.4082	0.7603	-0.088
H 	H 	0.3734	0.4202	0.7678	0.069
C 	C 	0.3719	0.3996	0.7401	-0.027
H 	H 	0.3588	0.4059	0.7336	0.045
C 	C 	0.44043	0.44043	0.86747	0.057
H 	H 	0.4463	0.4463	0.881	0.058
C 	C 	0.42479	0.42479	0.82697	0.001
C 	C 	0.41572	0.41572	0.8064	0.007
C 	C 	0.40859	0.40859	0.7902	-0.032
C 	C 	0.39893	0.39893	0.7682	0.067
C 	C 	0.38226	0.38226	0.73	0.002
C 	C 	0.37258	0.37258	0.7094	0.019
C 	C 	0.36434	0.36434	0.6919	-0.082
C 	C 	0.35525	0.35525	0.6725	0.179
O 	O 	0.61336	0.52336	0.08109	-0.357
O 	O 	0.63976	0.52332	0.10686	-0.376
C 	C 	0.63304	0.53068	0.08834	0.342
C 	C 	0.64192	0.54935	0.07797	-0.106
C 	C 	0.66238	0.55733	0.08587	-0.005
H 	H 	0.6691	0.5506	0.0986	0.058
C 	C 	0.7397	0.5918	0.1195	-0.088
H 	H 	0.7322	0.5798	0.1266	0.069
C 	C 	0.7599	0.6004	0.1281	-0.027
H 	H 	0.7664	0.5941	0.1412	0.045
C 	C 	0.63253	0.55957	0.05957	0.057
H 	H 	0.619	0.5537	0.0537	0.058
C 	C 	0.67303	0.57521	0.07521	0.001
C 	C 	0.6936	0.58428	0.08428	0.007
C 	C 	0.7098	0.59141	0.09141	-0.032
C 	C 	0.7318	0.60107	0.10107	0.067
C 	C 	0.77	0.61774	0.11774	0.002
C 	C 	0.7906	0.62742	0.12742	0.019
C 	C 	0.8081	0.63566	0.13566	-0.082
C 	C 	0.8275	0.64475	0.14475	0.179
O 	O 	0.47664	0.61336	0.08109	-0.357
O 	O 	0.47668	0.63976	0.10686	-0.376
C 	C 	0.46932	0.63304	0.08834	0.342
C 	C 	0.45065	0.64192	0.07797	-0.106
C 	C 	0.44267	0.66238	0.08587	-0.005
H 	H 	0.4494	0.6691	0.0986	0.058
C 	C 	0.4082	0.7397	0.1195	-0.088
H 	H 	0.4202	0.7322	0.1266	0.069
C 	C 	0.3996	0.7599	0.1281	-0.027
H 	H 	0.4059	0.7664	0.1412	0.045
C 	C 	0.44043	0.63253	0.05957	0.057
H 	H 	0.4463	0.619	0.0537	0.058
C 	C 	0.42479	0.67303	0.07521	0.001
C 	C 	0.41572	0.6936	0.08428	0.007
C 	C 	0.40859	0.7098	0.09141	-0.032
C 	C 	0.39893	0.7318	0.10107	0.067
C 	C 	0.38226	0.77	0.11774	0.002
C 	C 	0.37258	0.7906	0.12742	0.019
C 	C 	0.36434	0.8081	0.13566	-0.082
C 	C 	0.35525	0.8275	0.14475	0.179
O 	O 	0.38664	0.47664	0.08109	-0.357
O 	O 	0.36024	0.47668	0.10686	-0.376
C 	C 	0.36696	0.46932	0.08834	0.342
C 	C 	0.35808	0.45065	0.07797	-0.106
C 	C 	0.33762	0.44267	0.08587	-0.005
H 	H 	0.3309	0.4494	0.0986	0.058
C 	C 	0.2603	0.4082	0.1195	-0.088
H 	H 	0.2678	0.4202	0.1266	0.069
C 	C 	0.2401	0.3996	0.1281	-0.027
H 	H 	0.2336	0.4059	0.1412	0.045
C 	C 	0.36747	0.44043	0.05957	0.057
H 	H 	0.381	0.4463	0.0537	0.058
C 	C 	0.32697	0.42479	0.07521	0.001
C 	C 	0.3064	0.41572	0.08428	0.007
C 	C 	0.2902	0.40859	0.09141	-0.032
C 	C 	0.2682	0.39893	0.10107	0.067
C 	C 	0.23	0.38226	0.11774	0.002
C 	C 	0.2094	0.37258	0.12742	0.019
C 	C 	0.1919	0.36434	0.13566	-0.082
C 	C 	0.1725	0.35525	0.14475	0.179
O 	O 	0.52336	0.38664	0.08109	-0.357
O 	O 	0.52332	0.36024	0.10686	-0.376
C 	C 	0.53068	0.36696	0.08834	0.342
C 	C 	0.54935	0.35808	0.07797	-0.106
C 	C 	0.55733	0.33762	0.08587	-0.005
H 	H 	0.5506	0.3309	0.0986	0.058
C 	C 	0.5918	0.2603	0.1195	-0.088
H 	H 	0.5798	0.2678	0.1266	0.069
C 	C 	0.6004	0.2401	0.1281	-0.027
H 	H 	0.5941	0.2336	0.1412	0.045
C 	C 	0.55957	0.36747	0.05957	0.057
H 	H 	0.5537	0.381	0.0537	0.058
C 	C 	0.57521	0.32697	0.07521	0.001
C 	C 	0.58428	0.3064	0.08428	0.007
C 	C 	0.59141	0.2902	0.09141	-0.032
C 	C 	0.60107	0.2682	0.10107	0.067
C 	C 	0.61774	0.23	0.11774	0.002
C 	C 	0.62742	0.2094	0.12742	0.019
C 	C 	0.63566	0.1919	0.13566	-0.082
C 	C 	0.64475	0.1725	0.14475	0.179
O 	O 	0.61336	0.47664	0.91891	-0.357
O 	O 	0.63976	0.47668	0.89314	-0.376
C 	C 	0.63304	0.46932	0.91166	0.342
C 	C 	0.64192	0.45065	0.92203	-0.106
C 	C 	0.66238	0.44267	0.91413	-0.005
H 	H 	0.6691	0.4494	0.9014	0.058
C 	C 	0.7397	0.4082	0.8805	-0.088
H 	H 	0.7322	0.4202	0.8734	0.069
C 	C 	0.7599	0.3996	0.8719	-0.027
H 	H 	0.7664	0.4059	0.8588	0.045
C 	C 	0.63253	0.44043	0.94043	0.057
H 	H 	0.619	0.4463	0.9463	0.058
C 	C 	0.67303	0.42479	0.92479	0.001
C 	C 	0.6936	0.41572	0.91572	0.007
C 	C 	0.7098	0.40859	0.90859	-0.032
C 	C 	0.7318	0.39893	0.89893	0.067
C 	C 	0.77	0.38226	0.88226	0.002
C 	C 	0.7906	0.37258	0.87258	0.019
C 	C 	0.8081	0.36434	0.86434	-0.082
C 	C 	0.8275	0.35525	0.85525	0.179
O 	O 	0.52336	0.61336	0.91891	-0.357
O 	O 	0.52332	0.63976	0.89314	-0.376
C 	C 	0.53068	0.63304	0.91166	0.342
C 	C 	0.54935	0.64192	0.92203	-0.106
C 	C 	0.55733	0.66238	0.91413	-0.005
H 	H 	0.5506	0.6691	0.9014	0.058
C 	C 	0.5918	0.7397	0.8805	-0.088
H 	H 	0.5798	0.7322	0.8734	0.069
C 	C 	0.6004	0.7599	0.8719	-0.027
H 	H 	0.5941	0.7664	0.8588	0.045
C 	C 	0.55957	0.63253	0.94043	0.057
H 	H 	0.5537	0.619	0.9463	0.058
C 	C 	0.57521	0.67303	0.92479	0.001
C 	C 	0.58428	0.6936	0.91572	0.007
C 	C 	0.59141	0.7098	0.90859	-0.032
C 	C 	0.60107	0.7318	0.89893	0.067
C 	C 	0.61774	0.77	0.88226	0.002
C 	C 	0.62742	0.7906	0.87258	0.019
C 	C 	0.63566	0.8081	0.86434	-0.082
C 	C 	0.64475	0.8275	0.85525	0.179
O 	O 	0.38664	0.52336	0.91891	-0.357
O 	O 	0.36024	0.52332	0.89314	-0.376
C 	C 	0.36696	0.53068	0.91166	0.342
C 	C 	0.35808	0.54935	0.92203	-0.106
C 	C 	0.33762	0.55733	0.91413	-0.005
H 	H 	0.3309	0.5506	0.9014	0.058
C 	C 	0.2603	0.5918	0.8805	-0.088
H 	H 	0.2678	0.5798	0.8734	0.069
C 	C 	0.2401	0.6004	0.8719	-0.027
H 	H 	0.2336	0.5941	0.8588	0.045
C 	C 	0.36747	0.55957	0.94043	0.057
H 	H 	0.381	0.5537	0.9463	0.058
C 	C 	0.32697	0.57521	0.92479	0.001
C 	C 	0.3064	0.58428	0.91572	0.007
C 	C 	0.2902	0.59141	0.90859	-0.032
C 	C 	0.2682	0.60107	0.89893	0.067
C 	C 	0.23	0.61774	0.88226	0.002
C 	C 	0.2094	0.62742	0.87258	0.019
C 	C 	0.1919	0.63566	0.86434	-0.082
C 	C 	0.1725	0.64475	0.85525	0.179
O 	O 	0.47664	0.38664	0.91891	-0.357
O 	O 	0.47668	0.36024	0.89314	-0.376
C 	C 	0.46932	0.36696	0.91166	0.342
C 	C 	0.45065	0.35808	0.92203	-0.106
C 	C 	0.44267	0.33762	0.91413	-0.005
H 	H 	0.4494	0.3309	0.9014	0.058
C 	C 	0.4082	0.2603	0.8805	-0.088
H 	H 	0.4202	0.2678	0.8734	0.069
C 	C 	0.3996	0.2401	0.8719	-0.027
H 	H 	0.4059	0.2336	0.8588	0.045
C 	C 	0.44043	0.36747	0.94043	0.057
H 	H 	0.4463	0.381	0.9463	0.058
C 	C 	0.42479	0.32697	0.92479	0.001
C 	C 	0.41572	0.3064	0.91572	0.007
C 	C 	0.40859	0.2902	0.90859	-0.032
C 	C 	0.39893	0.2682	0.89893	0.067
C 	C 	0.38226	0.23	0.88226	0.002
C 	C 	0.37258	0.2094	0.87258	0.019
C 	C 	0.36434	0.1919	0.86434	-0.082
C 	C 	0.35525	0.1725	0.85525	0.179
Cu	Cu	0.594635	0.594635	-0	0.928
Cu	Cu	0.625943	0.625943	-0	0.926
O 	O 	0.58109	0.61336	0.02336	-0.357
O 	O 	0.60686	0.63976	0.02332	-0.376
O 	O 	0.56936	0.56936	-0	-0.179
O 	O 	0.65112	0.65112	-0	-0.212
C 	C 	0.58834	0.63304	0.03068	0.342
C 	C 	0.57797	0.64192	0.04935	-0.106
C 	C 	0.58587	0.66238	0.05733	-0.005
H 	H 	0.5986	0.6691	0.0506	0.058
C 	C 	0.6195	0.7397	0.0918	-0.088
H 	H 	0.6266	0.7322	0.0798	0.069
C 	C 	0.6281	0.7599	0.1004	-0.027
H 	H 	0.6412	0.7664	0.0941	0.045
C 	C 	0.55957	0.63253	0.05957	0.057
H 	H 	0.5537	0.619	0.0537	0.058
C 	C 	0.57521	0.67303	0.07521	0.001
C 	C 	0.58428	0.6936	0.08428	0.007
C 	C 	0.59141	0.7098	0.09141	-0.032
C 	C 	0.60107	0.7318	0.10107	0.067
C 	C 	0.61774	0.77	0.11774	0.002
C 	C 	0.62742	0.7906	0.12742	0.019
C 	C 	0.63566	0.8081	0.13566	-0.082
C 	C 	0.64475	0.8275	0.14475	0.179
Cu	Cu	0.594635	0.405365	-0	0.928
Cu	Cu	0.625943	0.374057	-0	0.926
O 	O 	0.58109	0.38664	0.97664	-0.357
O 	O 	0.60686	0.36024	0.97668	-0.376
O 	O 	0.56936	0.43064	-0	-0.179
O 	O 	0.65112	0.34888	-0	-0.212
C 	C 	0.58834	0.36696	0.96932	0.342
C 	C 	0.57797	0.35808	0.95065	-0.106
C 	C 	0.58587	0.33762	0.94267	-0.005
H 	H 	0.5986	0.3309	0.9494	0.058
C 	C 	0.6195	0.2603	0.9082	-0.088
H 	H 	0.6266	0.2678	0.9202	0.069
C 	C 	0.6281	0.2401	0.8996	-0.027
H 	H 	0.6412	0.2336	0.9059	0.045
C 	C 	0.55957	0.36747	0.94043	0.057
H 	H 	0.5537	0.381	0.9463	0.058
C 	C 	0.57521	0.32697	0.92479	0.001
C 	C 	0.58428	0.3064	0.91572	0.007
C 	C 	0.59141	0.2902	0.90859	-0.032
C 	C 	0.60107	0.2682	0.89893	0.067
C 	C 	0.61774	0.23	0.88226	0.002
C 	C 	0.62742	0.2094	0.87258	0.019
C 	C 	0.63566	0.1919	0.86434	-0.082
C 	C 	0.64475	0.1725	0.85525	0.179
O 	O 	0.61336	0.58109	0.97664	-0.357
O 	O 	0.63976	0.60686	0.97668	-0.376
C 	C 	0.63304	0.58834	0.96932	0.342
C 	C 	0.64192	0.57797	0.95065	-0.106
C 	C 	0.66238	0.58587	0.94267	-0.005
H 	H 	0.6691	0.5986	0.9494	0.058
C 	C 	0.7397	0.6195	0.9082	-0.088
H 	H 	0.7322	0.6266	0.9202	0.069
C 	C 	0.7599	0.6281	0.8996	-0.027
H 	H 	0.7664	0.6412	0.9059	0.045
C 	C 	0.63253	0.55957	0.94043	0.057
H 	H 	0.619	0.5537	0.9463	0.058
C 	C 	0.67303	0.57521	0.92479	0.001
C 	C 	0.6936	0.58428	0.91572	0.007
C 	C 	0.7098	0.59141	0.90859	-0.032
C 	C 	0.7318	0.60107	0.89893	0.067
C 	C 	0.77	0.61774	0.88226	0.002
C 	C 	0.7906	0.62742	0.87258	0.019
C 	C 	0.8081	0.63566	0.86434	-0.082
C 	C 	0.8275	0.64475	0.85525	0.179
Cu	Cu	0.405365	0.594635	-0	0.928
Cu	Cu	0.374057	0.625943	-0	0.926
O 	O 	0.41891	0.61336	0.97664	-0.357
O 	O 	0.39314	0.63976	0.97668	-0.376
O 	O 	0.43064	0.56936	-0	-0.179
O 	O 	0.34888	0.65112	-0	-0.212
C 	C 	0.41166	0.63304	0.96932	0.342
C 	C 	0.42203	0.64192	0.95065	-0.106
C 	C 	0.41413	0.66238	0.94267	-0.005
H 	H 	0.4014	0.6691	0.9494	0.058
C 	C 	0.3805	0.7397	0.9082	-0.088
H 	H 	0.3734	0.7322	0.9202	0.069
C 	C 	0.3719	0.7599	0.8996	-0.027
H 	H 	0.3588	0.7664	0.9059	0.045
C 	C 	0.44043	0.63253	0.94043	0.057
H 	H 	0.4463	0.619	0.9463	0.058
C 	C 	0.42479	0.67303	0.92479	0.001
C 	C 	0.41572	0.6936	0.91572	0.007
C 	C 	0.40859	0.7098	0.90859	-0.032
C 	C 	0.39893	0.7318	0.89893	0.067
C 	C 	0.38226	0.77	0.88226	0.002
C 	C 	0.37258	0.7906	0.87258	0.019
C 	C 	0.36434	0.8081	0.86434	-0.082
C 	C 	0.35525	0.8275	0.85525	0.179
Cu	Cu	0.405365	0.405365	-0	0.928
Cu	Cu	0.374057	0.374057	-0	0.926
O 	O 	0.38664	0.41891	0.97664	-0.357
O 	O 	0.36024	0.39314	0.97668	-0.376
O 	O 	0.43064	0.43064	-0	-0.179
O 	O 	0.34888	0.34888	-0	-0.212
C 	C 	0.36696	0.41166	0.96932	0.342
C 	C 	0.35808	0.42203	0.95065	-0.106
C 	C 	0.33762	0.41413	0.94267	-0.005
H 	H 	0.3309	0.4014	0.9494	0.058
C 	C 	0.2603	0.3805	0.9082	-0.088
H 	H 	0.2678	0.3734	0.9202	0.069
C 	C 	0.2401	0.3719	0.8996	-0.027
H 	H 	0.2336	0.3588	0.9059	0.045
C 	C 	0.36747	0.44043	0.94043	0.057
H 	H 	0.381	0.4463	0.9463	0.058
C 	C 	0.32697	0.42479	0.92479	0.001
C 	C 	0.3064	0.41572	0.91572	0.007
C 	C 	0.2902	0.40859	0.90859	-0.032
C 	C 	0.2682	0.39893	0.89893	0.067
C 	C 	0.23	0.38226	0.88226	0.002
C 	C 	0.2094	0.37258	0.87258	0.019
C 	C 	0.1919	0.36434	0.86434	-0.082
C 	C 	0.1725	0.35525	0.85525	0.179
O 	O 	0.41891	0.38664	0.02336	-0.357
O 	O 	0.39314	0.36024	0.02332	-0.376
C 	C 	0.41166	0.36696	0.03068	0.342
C 	C 	0.42203	0.35808	0.04935	-0.106
C 	C 	0.41413	0.33762	0.05733	-0.005
H 	H 	0.4014	0.3309	0.0506	0.058
C 	C 	0.3805	0.2603	0.0918	-0.088
H 	H 	0.3734	0.2678	0.0798	0.069
C 	C 	0.3719	0.2401	0.1004	-0.027
H 	H 	0.3588	0.2336	0.0941	0.045
C 	C 	0.44043	0.36747	0.05957	0.057
H 	H 	0.4463	0.381	0.0537	0.058
C 	C 	0.42479	0.32697	0.07521	0.001
C 	C 	0.41572	0.3064	0.08428	0.007
C 	C 	0.40859	0.2902	0.09141	-0.032
C 	C 	0.39893	0.2682	0.10107	0.067
C 	C 	0.38226	0.23	0.11774	0.002
C 	C 	0.37258	0.2094	0.12742	0.019
C 	C 	0.36434	0.1919	0.13566	-0.082
C 	C 	0.35525	0.1725	0.14475	0.179
O 	O 	0.61336	0.41891	0.02336	-0.357
O 	O 	0.63976	0.39314	0.02332	-0.376
C 	C 	0.63304	0.41166	0.03068	0.342
C 	C 	0.64192	0.42203	0.04935	-0.106
C 	C 	0.66238	0.41413	0.05733	-0.005
H 	H 	0.6691	0.4014	0.0506	0.058
C 	C 	0.7397	0.3805	0.0918	-0.088
H 	H 	0.7322	0.3734	0.0798	0.069
C 	C 	0.7599	0.3719	0.1004	-0.027
H 	H 	0.7664	0.3588	0.0941	0.045
C 	C 	0.63253	0.44043	0.05957	0.057
H 	H 	0.619	0.4463	0.0537	0.058
C 	C 	0.67303	0.42479	0.07521	0.001
C 	C 	0.6936	0.41572	0.08428	0.007
C 	C 	0.7098	0.40859	0.09141	-0.032
C 	C 	0.7318	0.39893	0.10107	0.067
C 	C 	0.77	0.38226	0.11774	0.002
C 	C 	0.7906	0.37258	0.12742	0.019
C 	C 	0.8081	0.36434	0.13566	-0.082
C 	C 	0.8275	0.35525	0.14475	0.179
O 	O 	0.38664	0.58109	0.02336	-0.357
O 	O 	0.36024	0.60686	0.02332	-0.376
C 	C 	0.36696	0.58834	0.03068	0.342
C 	C 	0.35808	0.57797	0.04935	-0.106
C 	C 	0.33762	0.58587	0.05733	-0.005
H 	H 	0.3309	0.5986	0.0506	0.058
C 	C 	0.2603	0.6195	0.0918	-0.088
H 	H 	0.2678	0.6266	0.0798	0.069
C 	C 	0.2401	0.6281	0.1004	-0.027
H 	H 	0.2336	0.6412	0.0941	0.045
C 	C 	0.36747	0.55957	0.05957	0.057
H 	H 	0.381	0.5537	0.0537	0.058
C 	C 	0.32697	0.57521	0.07521	0.001
C 	C 	0.3064	0.58428	0.08428	0.007
C 	C 	0.2902	0.59141	0.09141	-0.032
C 	C 	0.2682	0.60107	0.10107	0.067
C 	C 	0.23	0.61774	0.11774	0.002
C 	C 	0.2094	0.62742	0.12742	0.019
C 	C 	0.1919	0.63566	0.13566	-0.082
C 	C 	0.1725	0.64475	0.14475	0.179
O 	O 	0.47664	0.41891	0.88664	-0.357
O 	O 	0.47668	0.39314	0.86024	-0.376
C 	C 	0.46932	0.41166	0.86696	0.342
C 	C 	0.45065	0.42203	0.85808	-0.106
C 	C 	0.44267	0.41413	0.83762	-0.005
H 	H 	0.4494	0.4014	0.8309	0.058
C 	C 	0.4082	0.3805	0.7603	-0.088
H 	H 	0.4202	0.3734	0.7678	0.069
C 	C 	0.3996	0.3719	0.7401	-0.027
H 	H 	0.4059	0.3588	0.7336	0.045
O 	O 	0.58109	0.47664	0.88664	-0.357
O 	O 	0.60686	0.47668	0.86024	-0.376
C 	C 	0.58834	0.46932	0.86696	0.342
C 	C 	0.57797	0.45065	0.85808	-0.106
C 	C 	0.58587	0.44267	0.83762	-0.005
H 	H 	0.5986	0.4494	0.8309	0.058
C 	C 	0.6195	0.4082	0.7603	-0.088
H 	H 	0.6266	0.4202	0.7678	0.069
C 	C 	0.6281	0.3996	0.7401	-0.027
H 	H 	0.6412	0.4059	0.7336	0.045
O 	O 	0.52336	0.58109	0.88664	-0.357
O 	O 	0.52332	0.60686	0.86024	-0.376
C 	C 	0.53068	0.58834	0.86696	0.342
C 	C 	0.54935	0.57797	0.85808	-0.106
C 	C 	0.55733	0.58587	0.83762	-0.005
H 	H 	0.5506	0.5986	0.8309	0.058
C 	C 	0.5918	0.6195	0.7603	-0.088
H 	H 	0.5798	0.6266	0.7678	0.069
C 	C 	0.6004	0.6281	0.7401	-0.027
H 	H 	0.5941	0.6412	0.7336	0.045
O 	O 	0.41891	0.52336	0.88664	-0.357
O 	O 	0.39314	0.52332	0.86024	-0.376
C 	C 	0.41166	0.53068	0.86696	0.342
C 	C 	0.42203	0.54935	0.85808	-0.106
C 	C 	0.41413	0.55733	0.83762	-0.005
H 	H 	0.4014	0.5506	0.8309	0.058
C 	C 	0.3805	0.5918	0.7603	-0.088
H 	H 	0.3734	0.5798	0.7678	0.069
C 	C 	0.3719	0.6004	0.7401	-0.027
H 	H 	0.3588	0.5941	0.7336	0.045
O 	O 	0.47664	0.58109	0.11336	-0.357
O 	O 	0.47668	0.60686	0.13976	-0.376
C 	C 	0.46932	0.58834	0.13304	0.342
C 	C 	0.45065	0.57797	0.14192	-0.106
C 	C 	0.44267	0.58587	0.16238	-0.005
H 	H 	0.4494	0.5986	0.1691	0.058
C 	C 	0.4082	0.6195	0.2397	-0.088
H 	H 	0.4202	0.6266	0.2322	0.069
C 	C 	0.3996	0.6281	0.2599	-0.027
H 	H 	0.4059	0.6412	0.2664	0.045
O 	O 	0.41891	0.47664	0.11336	-0.357
O 	O 	0.39314	0.47668	0.13976	-0.376
C 	C 	0.41166	0.46932	0.13304	0.342
C 	C 	0.42203	0.45065	0.14192	-0.106
C 	C 	0.41413	0.44267	0.16238	-0.005
H 	H 	0.4014	0.4494	0.1691	0.058
C 	C 	0.3805	0.4082	0.2397	-0.088
H 	H 	0.3734	0.4202	0.2322	0.069
C 	C 	0.3719	0.3996	0.2599	-0.027
H 	H 	0.3588	0.4059	0.2664	0.045
O 	O 	0.52336	0.41891	0.11336	-0.357
O 	O 	0.52332	0.39314	0.13976	-0.376
C 	C 	0.53068	0.41166	0.13304	0.342
C 	C 	0.54935	0.42203	0.14192	-0.106
C 	C 	0.55733	0.41413	0.16238	-0.005
H 	H 	0.5506	0.4014	0.1691	0.058
C 	C 	0.5918	0.3805	0.2397	-0.088
H 	H 	0.5798	0.3734	0.2322	0.069
C 	C 	0.6004	0.3719	0.2599	-0.027
H 	H 	0.5941	0.3588	0.2664	0.045
O 	O 	0.58109	0.52336	0.11336	-0.357
O 	O 	0.60686	0.52332	0.13976	-0.376
C 	C 	0.58834	0.53068	0.13304	0.342
C 	C 	0.57797	0.54935	0.14192	-0.106
C 	C 	0.58587	0.55733	0.16238	-0.005
H 	H 	0.5986	0.5506	0.1691	0.058
C 	C 	0.6195	0.5918	0.2397	-0.088
H 	H 	0.6266	0.5798	0.2322	0.069
C 	C 	0.6281	0.6004	0.2599	-0.027
H 	H 	0.6412	0.5941	0.2664	0.045
O 	O 	0.38664	0.47664	0.91891	-0.357
O 	O 	0.36024	0.47668	0.89314	-0.376
C 	C 	0.36696	0.46932	0.91166	0.342
C 	C 	0.35808	0.45065	0.92203	-0.106
C 	C 	0.33762	0.44267	0.91413	-0.005
H 	H 	0.3309	0.4494	0.9014	0.058
C 	C 	0.2603	0.4082	0.8805	-0.088
H 	H 	0.2678	0.4202	0.8734	0.069
C 	C 	0.2401	0.3996	0.8719	-0.027
H 	H 	0.2336	0.4059	0.8588	0.045
O 	O 	0.52336	0.38664	0.91891	-0.357
O 	O 	0.52332	0.36024	0.89314	-0.376
C 	C 	0.53068	0.36696	0.91166	0.342
C 	C 	0.54935	0.35808	0.92203	-0.106
C 	C 	0.55733	0.33762	0.91413	-0.005
H 	H 	0.5506	0.3309	0.9014	0.058
C 	C 	0.5918	0.2603	0.8805	-0.088
H 	H 	0.5798	0.2678	0.8734	0.069
C 	C 	0.6004	0.2401	0.8719	-0.027
H 	H 	0.5941	0.2336	0.8588	0.045
O 	O 	0.61336	0.52336	0.91891	-0.357
O 	O 	0.63976	0.52332	0.89314	-0.376
C 	C 	0.63304	0.53068	0.91166	0.342
C 	C 	0.64192	0.54935	0.92203	-0.106
C 	C 	0.66238	0.55733	0.91413	-0.005
H 	H 	0.6691	0.5506	0.9014	0.058
C 	C 	0.7397	0.5918	0.8805	-0.088
H 	H 	0.7322	0.5798	0.8734	0.069
C 	C 	0.7599	0.6004	0.8719	-0.027
H 	H 	0.7664	0.5941	0.8588	0.045
O 	O 	0.47664	0.61336	0.91891	-0.357
O 	O 	0.47668	0.63976	0.89314	-0.376
C 	C 	0.46932	0.63304	0.91166	0.342
C 	C 	0.45065	0.64192	0.92203	-0.106
C 	C 	0.44267	0.66238	0.91413	-0.005
H 	H 	0.4494	0.6691	0.9014	0.058
C 	C 	0.4082	0.7397	0.8805	-0.088
H 	H 	0.4202	0.7322	0.8734	0.069
C 	C 	0.3996	0.7599	0.8719	-0.027
H 	H 	0.4059	0.7664	0.8588	0.045
O 	O 	0.38664	0.52336	0.08109	-0.357
O 	O 	0.36024	0.52332	0.10686	-0.376
C 	C 	0.36696	0.53068	0.08834	0.342
C 	C 	0.35808	0.54935	0.07797	-0.106
C 	C 	0.33762	0.55733	0.08587	-0.005
H 	H 	0.3309	0.5506	0.0986	0.058
C 	C 	0.2603	0.5918	0.1195	-0.088
H 	H 	0.2678	0.5798	0.1266	0.069
C 	C 	0.2401	0.6004	0.1281	-0.027
H 	H 	0.2336	0.5941	0.1412	0.045
O 	O 	0.47664	0.38664	0.08109	-0.357
O 	O 	0.47668	0.36024	0.10686	-0.376
C 	C 	0.46932	0.36696	0.08834	0.342
C 	C 	0.45065	0.35808	0.07797	-0.106
C 	C 	0.44267	0.33762	0.08587	-0.005
H 	H 	0.4494	0.3309	0.0986	0.058
C 	C 	0.4082	0.2603	0.1195	-0.088
H 	H 	0.4202	0.2678	0.1266	0.069
C 	C 	0.3996	0.2401	0.1281	-0.027
H 	H 	0.4059	0.2336	0.1412	0.045
O 	O 	0.61336	0.47664	0.08109	-0.357
O 	O 	0.63976	0.47668	0.10686	-0.376
C 	C 	0.63304	0.46932	0.08834	0.342
C 	C 	0.64192	0.45065	0.07797	-0.106
C 	C 	0.66238	0.44267	0.08587	-0.005
H 	H 	0.6691	0.4494	0.0986	0.058
C 	C 	0.7397	0.4082	0.1195	-0.088
H 	H 	0.7322	0.4202	0.1266	0.069
C 	C 	0.7599	0.3996	0.1281	-0.027
H 	H 	0.7664	0.4059	0.1412	0.045
O 	O 	0.52336	0.61336	0.08109	-0.357
O 	O 	0.52332	0.63976	0.10686	-0.376
C 	C 	0.53068	0.63304	0.08834	0.342
C 	C 	0.54935	0.64192	0.07797	-0.106
C 	C 	0.55733	0.66238	0.08587	-0.005
H 	H 	0.5506	0.6691	0.0986	0.058
C 	C 	0.5918	0.7397	0.1195	-0.088
H 	H 	0.5798	0.7322	0.1266	0.069
C 	C 	0.6004	0.7599	0.1281	-0.027
H 	H 	0.5941	0.7664	0.1412	0.045
O 	O 	0.41891	0.38664	0.97664	-0.357
O 	O 	0.39314	0.36024	0.97668	-0.376
C 	C 	0.41166	0.36696	0.96932	0.342
C 	C 	0.42203	0.35808	0.95065	-0.106
C 	C 	0.41413	0.33762	0.94267	-0.005
H 	H 	0.4014	0.3309	0.9494	0.058
C 	C 	0.3805	0.2603	0.9082	-0.088
H 	H 	0.3734	0.2678	0.9202	0.069
C 	C 	0.3719	0.2401	0.8996	-0.027
H 	H 	0.3588	0.2336	0.9059	0.045
O 	O 	0.41891	0.61336	0.02336	-0.357
O 	O 	0.39314	0.63976	0.02332	-0.376
C 	C 	0.41166	0.63304	0.03068	0.342
C 	C 	0.42203	0.64192	0.04935	-0.106
C 	C 	0.41413	0.66238	0.05733	-0.005
H 	H 	0.4014	0.6691	0.0506	0.058
C 	C 	0.3805	0.7397	0.0918	-0.088
H 	H 	0.3734	0.7322	0.0798	0.069
C 	C 	0.3719	0.7599	0.1004	-0.027
H 	H 	0.3588	0.7664	0.0941	0.045
O 	O 	0.38664	0.41891	0.02336	-0.357
O 	O 	0.36024	0.39314	0.02332	-0.376
C 	C 	0.36696	0.41166	0.03068	0.342
C 	C 	0.35808	0.42203	0.04935	-0.106
C 	C 	0.33762	0.41413	0.05733	-0.005
H 	H 	0.3309	0.4014	0.0506	0.058
C 	C 	0.2603	0.3805	0.0918	-0.088
H 	H 	0.2678	0.3734	0.0798	0.069
C 	C 	0.2401	0.3719	0.1004	-0.027
H 	H 	0.2336	0.3588	0.0941	0.045
O 	O 	0.58109	0.38664	0.02336	-0.357
O 	O 	0.60686	0.36024	0.02332	-0.376
C 	C 	0.58834	0.36696	0.03068	0.342
C 	C 	0.57797	0.35808	0.04935	-0.106
C 	C 	0.58587	0.33762	0.05733	-0.005
H 	H 	0.5986	0.3309	0.0506	0.058
C 	C 	0.6195	0.2603	0.0918	-0.088
H 	H 	0.6266	0.2678	0.0798	0.069
C 	C 	0.6281	0.2401	0.1004	-0.027
H 	H 	0.6412	0.2336	0.0941	0.045
O 	O 	0.61336	0.58109	0.02336	-0.357
O 	O 	0.63976	0.60686	0.02332	-0.376
C 	C 	0.63304	0.58834	0.03068	0.342
C 	C 	0.64192	0.57797	0.04935	-0.106
C 	C 	0.66238	0.58587	0.05733	-0.005
H 	H 	0.6691	0.5986	0.0506	0.058
C 	C 	0.7397	0.6195	0.0918	-0.088
H 	H 	0.7322	0.6266	0.0798	0.069
C 	C 	0.7599	0.6281	0.1004	-0.027
H 	H 	0.7664	0.6412	0.0941	0.045
O 	O 	0.58109	0.61336	0.97664	-0.357
O 	O 	0.60686	0.63976	0.97668	-0.376
C 	C 	0.58834	0.63304	0.96932	0.342
C 	C 	0.57797	0.64192	0.95065	-0.106
C 	C 	0.58587	0.66238	0.94267	-0.005
H 	H 	0.5986	0.6691	0.9494	0.058
C 	C 	0.6195	0.7397	0.9082	-0.088
H 	H 	0.6266	0.7322	0.9202	0.069
C 	C 	0.6281	0.7599	0.8996	-0.027
H 	H 	0.6412	0.7664	0.9059	0.045
O 	O 	0.38664	0.58109	0.97664	-0.357
O 	O 	0.36024	0.60686	0.97668	-0.376
C 	C 	0.36696	0.58834	0.96932	0.342
C 	C 	0.35808	0.57797	0.95065	-0.106
C 	C 	0.33762	0.58587	0.94267	-0.005
H 	H 	0.3309	0.5986	0.9494	0.058
C 	C 	0.2603	0.6195	0.9082	-0.088
H 	H 	0.2678	0.6266	0.9202	0.069
C 	C 	0.2401	0.6281	0.8996	-0.027
H 	H 	0.2336	0.6412	0.9059	0.045
O 	O 	0.61336	0.41891	0.97664	-0.357
O 	O 	0.63976	0.39314	0.97668	-0.376
C 	C 	0.63304	0.41166	0.96932	0.342
C 	C 	0.64192	0.42203	0.95065	-0.106
C 	C 	0.66238	0.41413	0.94267	-0.005
H 	H 	0.6691	0.4014	0.9494	0.058
C 	C 	0.7397	0.3805	0.9082	-0.088
H 	H 	0.7322	0.3734	0.9202	0.069
C 	C 	0.7599	0.3719	0.8996	-0.027
H 	H 	0.7664	0.3588	0.9059	0.045
_end
