data_functionalizedCrystal
_audit_creation_method	'EQeq! by Chris Wilmer'
_symmetry_space_group_name_H-M	'P1'
_symmetry_Int_Tables_number	1
_symmetry_cell_setting	triclinic
loop_
_symmetry_equiv_pos_as_xyz
  x,y,z
_cell_length_a	10.3175
_cell_length_b	10.3175
_cell_length_c	14.29
_cell_angle_alpha	90
_cell_angle_beta	90
_cell_angle_gamma	90
loop_
_atom_site_label
_atom_site_type_symbol
_atom_site_fract_x
_atom_site_fract_y
_atom_site_fract_z
_atom_site_charge
Eu	Eu	0.1396	0.8604	0.125	2.634
Eu	Eu	0.8604	0.1396	0.625	2.662
Eu	Eu	0.1396	0.1396	0.375	2.576
Eu	Eu	0.8604	0.8604	0.875	2.766
H 	H 	0.9411	0.4479	0.8661	-0.093
H 	H 	0.0589	0.5521	0.3661	-0.077
H 	H 	0.5521	0.9411	0.1161	-0.085
H 	H 	0.4479	0.0589	0.6161	-0.086
H 	H 	0.0589	0.4479	0.1339	-0.087
H 	H 	0.9411	0.5521	0.6339	-0.081
H 	H 	0.4479	0.9411	0.8839	-0.086
H 	H 	0.5521	0.0589	0.3839	-0.077
H 	H 	-0	0.1152	-0	-0.173
H 	H 	-1.39982e-32	0.8848	0.5	-0.133
H 	H 	0.8848	0	0.25	-0.132
H 	H 	0.1152	0	0.75	-0.171
C 	C 	0.9646	0.4014	0.921	0.419
C 	C 	0.9636	0.2659	0.9222	-0.453
C 	C 	0.9244	0.1952	0.8347	0.718
C 	C 	0.0354	0.5986	0.421	0.34
C 	C 	0.0364	0.7341	0.4222	-0.467
C 	C 	0.0756	0.8048	0.3347	0.695
C 	C 	0.5986	0.9646	0.171	0.386
C 	C 	0.7341	0.9636	0.1722	-0.428
C 	C 	0.8048	0.9244	0.0847	0.703
C 	C 	0.4014	0.0354	0.671	0.361
C 	C 	0.2659	0.0364	0.6722	-0.502
C 	C 	0.1952	0.0756	0.5847	0.713
C 	C 	0.0354	0.4014	0.079	0.362
C 	C 	0.0364	0.2659	0.0778	-0.5
C 	C 	0.0756	0.1952	0.1653	0.709
C 	C 	0.9646	0.5986	0.579	0.382
C 	C 	0.9636	0.7341	0.5778	-0.433
C 	C 	0.9244	0.8048	0.6653	0.704
C 	C 	0.4014	0.9646	0.829	0.406
C 	C 	0.2659	0.9636	0.8278	-0.46
C 	C 	0.1952	0.9244	0.9153	0.718
C 	C 	0.5986	0.0354	0.329	0.341
C 	C 	0.7341	0.0364	0.3278	-0.466
C 	C 	0.8048	0.0756	0.4153	0.695
C 	C 	-0	0.6194	-0	0.656
C 	C 	-4.14867e-33	0.4646	-0	-0.484
C 	C 	-0	0.2073	-0	0.39
C 	C 	-5.70084e-33	0.3806	0.5	0.665
C 	C 	1.91912e-32	0.5354	0.5	-0.443
C 	C 	2.59651e-33	0.7927	0.5	0.39
C 	C 	0.3806	0	0.25	0.659
C 	C 	0.5354	0	0.25	-0.449
C 	C 	0.7927	0	0.25	0.381
C 	C 	0.6194	0	0.75	0.674
C 	C 	0.4646	0	0.75	-0.468
C 	C 	0.2073	0	0.75	0.411
O 	O 	0.0651	0.671	0.0606	-0.718
O 	O 	0.9113	0.2551	0.7605	-0.674
O 	O 	0.9037	0.0809	0.8369	-0.744
O 	O 	0.9349	0.329	0.5606	-0.677
O 	O 	0.0887	0.7449	0.2605	-0.673
O 	O 	0.0963	0.9191	0.3369	-0.692
O 	O 	0.329	0.0651	0.3106	-0.704
O 	O 	0.7449	0.9113	0.0105	-0.681
O 	O 	0.9191	0.9037	0.0869	-0.682
O 	O 	0.671	0.9349	0.8106	-0.687
O 	O 	0.2551	0.0887	0.5105	-0.678
O 	O 	0.0809	0.0963	0.5869	-0.751
O 	O 	0.9349	0.671	0.9394	-0.677
O 	O 	0.0887	0.2551	0.2395	-0.677
O 	O 	0.0963	0.0809	0.1631	-0.753
O 	O 	0.0651	0.329	0.4394	-0.705
O 	O 	0.9113	0.7449	0.7395	-0.674
O 	O 	0.9037	0.9191	0.6631	-0.684
O 	O 	0.671	0.0651	0.6894	-0.72
O 	O 	0.2551	0.9113	0.9895	-0.657
O 	O 	0.0809	0.9037	0.9131	-0.731
O 	O 	0.329	0.9349	0.1894	-0.672
O 	O 	0.7449	0.0887	0.4895	-0.676
O 	O 	0.9191	0.0963	0.4131	-0.695
_end
