data_functionalizedCrystal
_audit_creation_method	'EQeq! by Chris Wilmer'
_symmetry_space_group_name_H-M	'P1'
_symmetry_Int_Tables_number	1
_symmetry_cell_setting	triclinic
loop_
_symmetry_equiv_pos_as_xyz
  x,y,z
_cell_length_a	7.0382
_cell_length_b	83.7732
_cell_length_c	83.7732
_cell_angle_alpha	60.0778
_cell_angle_beta	88.3952
_cell_angle_gamma	91.6048
loop_
_atom_site_label
_atom_site_type_symbol
_atom_site_fract_x
_atom_site_fract_y
_atom_site_fract_z
_atom_site_charge
Mg	Mg	0.36512	0.32767	0.32385	1.476
Mg	Mg	0.65592	0.67167	0.67623	1.478
Mg	Mg	0.68897	0.32385	0.34848	1.476
Mg	Mg	0.33215	0.67623	0.6521	1.479
Mg	Mg	0.03745	0.34848	0.32767	1.473
Mg	Mg	0.98425	0.6521	0.67167	1.475
H 	H 	0.40563	0.50966	0.08725	0.047
H 	H 	0.65325	0.51518	0.07954	0.047
H 	H 	0.51084	0.50116	0.07302	0.048
H 	H 	0.61447	0.4903	0.11283	0.026
H 	H 	0.72966	0.48237	0.0986	0.031
H 	H 	0.42548	0.46756	0.09705	0.037
H 	H 	0.30148	0.47621	0.11032	0.035
H 	H 	0.49111	0.45736	0.13749	0.033
H 	H 	0.63744	0.45081	0.12386	0.042
H 	H 	0.35774	0.43403	0.11998	0.037
H 	H 	0.42641	0.42476	0.14317	0.035
H 	H 	0.28185	0.39007	0.14184	0.051
H 	H 	0.32463	0.36573	0.15221	0.046
H 	H 	0.4144	0.38155	0.12888	0.048
H 	H 	0.99369	0.37117	0.1425	0.034
H 	H 	0.12586	0.36349	0.12897	0.025
H 	H 	0.16996	0.39569	0.10273	0.035
H 	H 	0.0597	0.40442	0.11632	0.044
H 	H 	0.75451	0.38499	0.11903	0.033
H 	H 	0.87347	0.3787	0.10389	0.03
H 	H 	0.92663	0.41611	0.08151	0.039
H 	H 	0.71954	0.40328	0.0817	0.028
H 	H 	0.62237	0.55071	0.92421	0.058
H 	H 	0.72677	0.56853	0.92802	0.055
H 	H 	0.77453	0.56899	0.90658	0.061
H 	H 	0.34439	0.50165	0.97289	0.062
H 	H 	0.37025	0.50056	0.95203	0.057
H 	H 	0.50309	0.5181	0.9543	0.058
H 	H 	0.7806	0.53637	0.95778	0.041
H 	H 	0.34108	0.53449	0.92152	0.041
H 	H 	0.61599	0.4696	0.02193	0.06
H 	H 	0.67364	0.46683	0.00236	0.055
H 	H 	0.8123	0.45576	0.02258	0.06
H 	H 	0.53913	0.41099	0.10258	0.037
H 	H 	0.62413	0.43096	0.08181	0.041
H 	H 	0.14237	0.45209	0.1372	0.036
H 	H 	0.14295	0.42797	0.15358	0.038
H 	H 	0.67074	0.44284	0.16623	0.055
H 	H 	0.92323	0.4407	0.16901	0.06
H 	H 	0.82256	0.44701	0.14712	0.063
H 	H 	0.44622	0.35903	0.19168	0.059
H 	H 	0.62385	0.35738	0.1768	0.054
H 	H 	0.67778	0.35042	0.20017	0.059
H 	H 	0.11461	0.4072	0.19596	0.055
H 	H 	0.35245	0.41714	0.19021	0.057
H 	H 	0.26797	0.40203	0.18179	0.06
H 	H 	0.36067	0.3288	0.26834	0.055
H 	H 	0.43091	0.32516	0.24964	0.055
H 	H 	0.60587	0.33261	0.26003	0.06
H 	H 	0.88613	0.54325	0.89563	0.042
H 	H 	0.36456	0.59532	0.86574	0.039
H 	H 	0.90459	0.61237	0.77089	0.032
H 	H 	0.33805	0.64561	0.77248	0.044
H 	H 	0.82143	0.49369	0.97756	0.041
H 	H 	0.79872	0.38427	0.15665	0.041
H 	H 	0.67906	0.41262	0.19556	0.042
H 	H 	0.12693	0.63944	0.75356	0.063
H 	H 	0.34093	0.64635	0.72771	-0.001
H 	H 	0.64892	0.64575	0.72063	0.096
H 	H 	0.3732	0.35619	0.27695	0.08
H 	H 	0.67925	0.35036	0.27307	0.012
H 	H 	0.88648	0.35817	0.24638	0.053
H 	H 	0.31682	0.58835	0.80198	0.042
H 	H 	0.19794	0.61703	0.84059	0.041
H 	H 	0.17461	0.50811	0.01991	0.041
H 	H 	0.67078	0.35546	0.2248	0.044
H 	H 	0.09858	0.38729	0.22795	0.034
H 	H 	0.63186	0.40609	0.13155	0.039
H 	H 	0.11031	0.45817	0.10194	0.042
H 	H 	0.44192	0.67247	0.74513	0.058
H 	H 	0.69497	0.67498	0.74038	0.054
H 	H 	0.54166	0.66772	0.72805	0.058
H 	H 	0.72277	0.59804	0.81659	0.06
H 	H 	0.64091	0.58312	0.80785	0.056
H 	H 	0.88022	0.59267	0.80285	0.055
H 	H 	0.32276	0.65068	0.79705	0.059
H 	H 	0.37476	0.6438	0.82044	0.054
H 	H 	0.55324	0.64191	0.80577	0.059
H 	H 	0.17352	0.55416	0.85047	0.063
H 	H 	0.07227	0.56037	0.82863	0.059
H 	H 	0.32481	0.55823	0.83138	0.055
H 	H 	0.85362	0.57311	0.84398	0.038
H 	H 	0.85402	0.54903	0.86052	0.036
H 	H 	0.3726	0.57073	0.91546	0.041
H 	H 	0.45752	0.59062	0.89461	0.037
H 	H 	0.18367	0.54603	0.97488	0.06
H 	H 	0.32229	0.53499	0.9951	0.055
H 	H 	0.38001	0.5322	0.97554	0.06
H 	H 	0.65553	0.46712	0.076	0.041
H 	H 	0.21586	0.46543	0.0396	0.041
H 	H 	0.49336	0.48363	0.04322	0.058
H 	H 	0.6261	0.50111	0.04558	0.057
H 	H 	0.65194	0.50012	0.02467	0.062
H 	H 	0.22222	0.43263	0.09077	0.061
H 	H 	0.2699	0.43321	0.06927	0.055
H 	H 	0.37429	0.45095	0.07318	0.058
H 	H 	0.27728	0.59851	0.91537	0.028
H 	H 	0.07012	0.58563	0.91566	0.039
H 	H 	0.12333	0.62302	0.89308	0.03
H 	H 	0.24218	0.61659	0.87804	0.033
H 	H 	0.93692	0.59712	0.88089	0.044
H 	H 	0.82675	0.60598	0.89437	0.035
H 	H 	0.87081	0.6381	0.86799	0.025
H 	H 	0.00299	0.63031	0.85456	0.034
H 	H 	0.58225	0.61996	0.86821	0.048
H 	H 	0.67209	0.63568	0.84484	0.046
H 	H 	0.71479	0.61131	0.85536	0.051
H 	H 	0.57025	0.57649	0.85429	0.035
H 	H 	0.63863	0.56733	0.87747	0.037
H 	H 	0.35877	0.55051	0.8737	0.042
H 	H 	0.50503	0.54382	0.86017	0.033
H 	H 	0.69438	0.52506	0.8874	0.035
H 	H 	0.57062	0.53386	0.90055	0.037
H 	H 	0.26623	0.51902	0.89912	0.031
H 	H 	0.38099	0.51096	0.88497	0.026
H 	H 	0.48516	0.50028	0.92472	0.049
H 	H 	0.34218	0.48623	0.91832	0.048
H 	H 	0.58977	0.49168	0.91057	0.048
H 	H 	0.49288	0.08725	0.40309	0.048
H 	H 	0.73279	0.07954	0.40528	0.048
H 	H 	0.58386	0.07302	0.42582	0.048
H 	H 	0.7273	0.11283	0.39687	0.027
H 	H 	0.82826	0.0986	0.41903	0.031
H 	H 	0.52253	0.09705	0.43539	0.037
H 	H 	0.4118	0.11032	0.41347	0.035
H 	H 	0.6286	0.13749	0.40515	0.033
H 	H 	0.7613	0.12386	0.42533	0.042
H 	H 	0.47772	0.11998	0.44599	0.037
H 	H 	0.56958	0.14317	0.43207	0.035
H 	H 	0.42369	0.14184	0.46809	0.052
H 	H 	0.47684	0.15221	0.48206	0.047
H 	H 	0.54328	0.12888	0.48957	0.049
H 	H 	0.13619	0.1425	0.48633	0.021
H 	H 	0.25483	0.12897	0.50754	0.022
H 	H 	0.27269	0.10273	0.50158	0.036
H 	H 	0.17602	0.11632	0.47926	0.045
H 	H 	0.87354	0.11903	0.49598	0.034
H 	H 	0.97736	0.10389	0.51741	0.031
H 	H 	0.00814	0.08151	0.50238	0.031
H 	H 	0.80124	0.0817	0.51502	0.027
H 	H 	0.54658	0.92421	0.52508	0.058
H 	H 	0.65479	0.92802	0.50345	0.056
H 	H 	0.68111	0.90658	0.52443	0.062
H 	H 	0.31728	0.97289	0.52546	0.062
H 	H 	0.32228	0.95203	0.54741	0.056
H 	H 	0.45739	0.9543	0.5276	0.057
H 	H 	0.73838	0.95778	0.50585	0.042
H 	H 	0.2626	0.92152	0.54399	0.04
H 	H 	0.63792	0.02193	0.50847	0.06
H 	H 	0.676	0.00236	0.53081	0.055
H 	H 	0.83488	0.02258	0.52166	0.06
H 	H 	0.64171	0.10258	0.48643	0.037
H 	H 	0.70594	0.08181	0.48723	0.042
H 	H 	0.27957	0.1372	0.41071	0.037
H 	H 	0.29653	0.15358	0.41845	0.039
H 	H 	0.83697	0.16623	0.39093	0.052
H 	H 	0.09224	0.16901	0.39029	0.042
H 	H 	0.96968	0.14712	0.40587	0.059
H 	H 	0.6379	0.19168	0.44929	0.06
H 	H 	0.80065	0.1768	0.46582	0.055
H 	H 	0.87795	0.20017	0.44941	0.06
H 	H 	0.31057	0.19596	0.39684	0.056
H 	H 	0.54266	0.19021	0.39265	0.057
H 	H 	0.44976	0.18179	0.41618	0.06
H 	H 	0.62901	0.26834	0.40286	0.058
H 	H 	0.68055	0.24964	0.4252	0.057
H 	H 	0.8659	0.26003	0.40736	0.065
H 	H 	0.78176	0.89563	0.56112	0.039
H 	H 	0.2303	0.86574	0.53894	0.04
H 	H 	0.67548	0.77089	0.61674	0.034
H 	H 	0.11053	0.77248	0.58191	0.047
H 	H 	0.79899	0.97756	0.52875	0.04
H 	H 	0.95537	0.15665	0.45908	0.043
H 	H 	0.87462	0.19556	0.39182	0.043
H 	H 	0.88049	0.75356	0.607	0.058
H 	H 	0.06864	0.72771	0.62594	0.017
H 	H 	0.36955	0.72063	0.63362	0.101
H 	H 	0.65015	0.27695	0.36686	0.086
H 	H 	0.95232	0.27307	0.37657	0.03
H 	H 	0.13286	0.24638	0.39545	0.048
H 	H 	0.1188	0.80198	0.60967	0.043
H 	H 	0.03853	0.84059	0.54238	0.042
H 	H 	0.19452	0.01991	0.47198	0.041
H 	H 	0.89558	0.2248	0.41974	0.047
H 	H 	0.32653	0.22795	0.38476	0.036
H 	H 	0.76341	0.13155	0.46236	0.039
H 	H 	0.21225	0.10194	0.43989	0.042
H 	H 	0.18705	0.74513	0.5824	0.061
H 	H 	0.43535	0.74038	0.58464	0.057
H 	H 	0.26971	0.72805	0.60423	0.061
H 	H 	0.53936	0.81659	0.58537	0.06
H 	H 	0.44876	0.80785	0.60903	0.057
H 	H 	0.68307	0.80285	0.60448	0.056
H 	H 	0.11981	0.79705	0.55227	0.06
H 	H 	0.1952	0.82044	0.53576	0.055
H 	H 	0.35901	0.80577	0.55232	0.06
H 	H 	0.02399	0.85047	0.59537	0.059
H 	H 	0.9009	0.82863	0.611	0.042
H 	H 	0.15619	0.83138	0.61039	0.052
H 	H 	0.6976	0.84398	0.58291	0.039
H 	H 	0.71454	0.86052	0.59045	0.037
H 	H 	0.28806	0.91546	0.51381	0.043
H 	H 	0.35213	0.89461	0.51477	0.038
H 	H 	0.15855	0.97488	0.47909	0.06
H 	H 	0.31739	0.9951	0.46991	0.055
H 	H 	0.35555	0.97554	0.49226	0.06
H 	H 	0.73153	0.076	0.45688	0.041
H 	H 	0.25546	0.0396	0.49497	0.041
H 	H 	0.53658	0.04322	0.47315	0.058
H 	H 	0.67168	0.04558	0.45331	0.057
H 	H 	0.67661	0.02467	0.47521	0.062
H 	H 	0.31299	0.09077	0.4766	0.06
H 	H 	0.33917	0.06927	0.49752	0.055
H 	H 	0.44747	0.07318	0.47587	0.058
H 	H 	0.19265	0.91537	0.48612	0.027
H 	H 	0.98578	0.91566	0.49871	0.032
H 	H 	0.01641	0.89308	0.4839	0.031
H 	H 	0.12022	0.87804	0.50537	0.034
H 	H 	0.81781	0.88089	0.52199	0.046
H 	H 	0.72112	0.89437	0.49965	0.036
H 	H 	0.7388	0.86799	0.49391	0.022
H 	H 	0.85755	0.85456	0.51513	0.022
H 	H 	0.45046	0.86821	0.51183	0.049
H 	H 	0.51693	0.84484	0.51948	0.047
H 	H 	0.57015	0.85536	0.53333	0.052
H 	H 	0.42454	0.85429	0.56922	0.035
H 	H 	0.5161	0.87747	0.5552	0.037
H 	H 	0.23247	0.8737	0.57579	0.042
H 	H 	0.3652	0.86017	0.59601	0.033
H 	H 	0.58178	0.8874	0.58754	0.036
H 	H 	0.47117	0.90055	0.56559	0.037
H 	H 	0.16535	0.89912	0.58186	0.031
H 	H 	0.26596	0.88497	0.60407	0.027
H 	H 	0.40988	0.92472	0.575	0.049
H 	H 	0.2605	0.91832	0.59545	0.048
H 	H 	0.50034	0.91057	0.59775	0.048
H 	H 	0.89597	0.40309	0.50966	0.052
H 	H 	0.13807	0.40528	0.51518	0.047
H 	H 	0.00968	0.42582	0.50116	0.048
H 	H 	0.12417	0.39687	0.4903	0.026
H 	H 	0.24729	0.41903	0.48237	0.031
H 	H 	0.95792	0.43539	0.46756	0.035
H 	H 	0.82527	0.41347	0.47621	0.033
H 	H 	0.03375	0.40515	0.45736	0.035
H 	H 	0.18663	0.42533	0.45081	0.046
H 	H 	0.92371	0.44599	0.43403	0.033
H 	H 	0.00165	0.43207	0.42476	0.023
H 	H 	0.89178	0.46809	0.39007	0.053
H 	H 	0.9589	0.48206	0.36573	0.05
H 	H 	0.03285	0.48957	0.38155	0.04
H 	H 	0.62252	0.48633	0.37117	0.027
H 	H 	0.76237	0.50754	0.36349	0.027
H 	H 	0.77427	0.50158	0.39569	0.037
H 	H 	0.65528	0.47926	0.40442	0.046
H 	H 	0.36952	0.49598	0.38499	0.033
H 	H 	0.49477	0.51741	0.3787	0.03
H 	H 	0.51052	0.50238	0.41611	0.037
H 	H 	0.31626	0.51502	0.40328	0.027
H 	H 	0.07166	0.52508	0.55071	0.06
H 	H 	0.15824	0.50345	0.56853	0.057
H 	H 	0.20554	0.52443	0.56899	0.063
H 	H 	0.84274	0.52546	0.50165	0.062
H 	H 	0.86969	0.54741	0.50056	0.056
H 	H 	0.98499	0.5276	0.5181	0.057
H 	H 	0.24423	0.50585	0.53637	0.041
H 	H 	0.80659	0.54399	0.53449	0.039
H 	H 	0.14639	0.50847	0.4696	0.059
H 	H 	0.20681	0.53081	0.46683	0.055
H 	H 	0.35654	0.52166	0.45576	0.059
H 	H 	0.12814	0.48643	0.41099	0.035
H 	H 	0.19317	0.48723	0.43096	0.04
H 	H 	0.69028	0.41071	0.45209	0.042
H 	H 	0.71498	0.41845	0.42797	0.046
H 	H 	0.2279	0.39093	0.44284	0.052
H 	H 	0.48253	0.39029	0.4407	0.055
H 	H 	0.37555	0.40587	0.44701	0.06
H 	H 	0.08719	0.44929	0.35903	0.056
H 	H 	0.26647	0.46582	0.35738	0.052
H 	H 	0.32736	0.44941	0.35042	0.057
H 	H 	0.70741	0.39684	0.4072	0.063
H 	H 	0.93531	0.39265	0.41714	0.066
H 	H 	0.86594	0.41618	0.40203	0.069
H 	H 	0.03187	0.40286	0.3288	0.046
H 	H 	0.10575	0.4252	0.32516	0.05
H 	H 	0.27326	0.40736	0.33261	0.056
H 	H 	0.34288	0.56112	0.54325	0.042
H 	H 	0.76924	0.53894	0.59532	0.037
H 	H 	0.29222	0.61674	0.61237	0.04
H 	H 	0.69244	0.58191	0.64561	0.039
H 	H 	0.32774	0.52875	0.49369	0.041
H 	H 	0.41445	0.45908	0.38427	0.04
H 	H 	0.26644	0.39182	0.41262	0.038
H 	H 	0.48749	0.607	0.63944	0.068
H 	H 	0.69458	0.62594	0.64635	-0.012
H 	H 	0.00317	0.63362	0.64575	0.111
H 	H 	0.01701	0.36686	0.35619	0.059
H 	H 	0.32889	0.37657	0.35036	0.005
H 	H 	0.52831	0.39545	0.35817	0.057
H 	H 	0.72847	0.60967	0.58835	0.038
H 	H 	0.58091	0.54238	0.61703	0.04
H 	H 	0.6665	0.47198	0.50811	0.041
H 	H 	0.31532	0.41974	0.35546	0.038
H 	H 	0.71129	0.38476	0.38729	0.044
H 	H 	0.22577	0.46236	0.40609	0.037
H 	H 	0.65214	0.43989	0.45817	0.042
H 	H 	0.76945	0.5824	0.67247	0.059
H 	H 	0.01999	0.58464	0.67498	0.075
H 	H 	0.87394	0.60423	0.66772	0.057
H 	H 	0.12473	0.58537	0.59804	0.068
H 	H 	0.05779	0.60903	0.58312	0.064
H 	H 	0.28755	0.60448	0.59267	0.062
H 	H 	0.67208	0.55227	0.65068	0.057
H 	H 	0.73096	0.53576	0.6438	0.052
H 	H 	0.91133	0.55232	0.64191	0.056
H 	H 	0.61936	0.59537	0.55416	0.06
H 	H 	0.5119	0.611	0.56037	0.054
H 	H 	0.76658	0.61039	0.55823	0.052
H 	H 	0.28051	0.58291	0.57311	0.045
H 	H 	0.30499	0.59045	0.54903	0.042
H 	H 	0.80187	0.51381	0.57073	0.04
H 	H 	0.8669	0.51477	0.59062	0.035
H 	H 	0.63764	0.47909	0.54603	0.06
H 	H 	0.7873	0.46991	0.53499	0.056
H 	H 	0.84781	0.49226	0.5322	0.059
H 	H 	0.18841	0.45688	0.46712	0.039
H 	H 	0.75043	0.49497	0.46543	0.041
H 	H 	0.00973	0.47315	0.48363	0.057
H 	H 	0.12499	0.45331	0.50111	0.056
H 	H 	0.15182	0.47521	0.50012	0.062
H 	H 	0.78959	0.4766	0.43263	0.063
H 	H 	0.83669	0.49752	0.43321	0.057
H 	H 	0.92334	0.47587	0.45095	0.06
H 	H 	0.67877	0.48612	0.59851	0.028
H 	H 	0.48449	0.49871	0.58563	0.037
H 	H 	0.50031	0.4839	0.62302	0.03
H 	H 	0.62559	0.50537	0.61659	0.033
H 	H 	0.3398	0.52199	0.59712	0.046
H 	H 	0.22077	0.49965	0.60598	0.036
H 	H 	0.23271	0.49391	0.6381	0.026
H 	H 	0.37268	0.51513	0.63031	0.027
H 	H 	0.96229	0.51183	0.61996	0.041
H 	H 	0.03641	0.51948	0.63568	0.049
H 	H 	0.10348	0.53333	0.61131	0.053
H 	H 	0.99376	0.56922	0.57649	0.025
H 	H 	0.0713	0.5552	0.56733	0.034
H 	H 	0.80826	0.57579	0.55051	0.045
H 	H 	0.96121	0.59601	0.54382	0.034
H 	H 	0.16932	0.58754	0.52506	0.034
H 	H 	0.03676	0.56559	0.53386	0.035
H 	H 	0.74721	0.58186	0.51902	0.031
H 	H 	0.87003	0.60407	0.51096	0.026
H 	H 	0.98488	0.575	0.50028	0.048
H 	H 	0.85595	0.59545	0.48623	0.047
H 	H 	0.09809	0.59775	0.49168	0.051
C 	C 	0.53674	0.50429	0.08428	-0.147
C 	C 	0.59291	0.48691	0.10167	-0.039
C 	C 	0.43918	0.47126	0.10807	-0.072
C 	C 	0.49152	0.45413	0.12607	-0.067
C 	C 	0.36061	0.43687	0.13167	-0.056
C 	C 	0.29424	0.37841	0.13906	-0.147
C 	C 	0.10967	0.37515	0.13169	-0.045
C 	C 	0.05926	0.39256	0.11382	-0.081
C 	C 	0.86371	0.38984	0.10747	-0.054
C 	C 	0.80111	0.40756	0.0903	-0.058
C 	C 	0.75149	0.55973	0.92171	-0.179
C 	C 	0.36451	0.51016	0.95761	-0.178
C 	C 	0.90369	0.53605	0.94984	-0.075
C 	C 	0.91515	0.5476	0.93055	0.038
C 	C 	0.07704	0.54734	0.92027	-0.01
C 	C 	0.2199	0.53504	0.92948	-0.072
C 	C 	0.20773	0.52334	0.94877	0.04
C 	C 	0.04856	0.52409	0.95906	-0.008
C 	C 	0.7352	0.46842	0.01364	-0.176
C 	C 	0.67064	0.41936	0.09496	-0.087
C 	C 	0.15899	0.43824	0.13859	-0.086
C 	C 	0.80126	0.43821	0.16223	-0.18
C 	C 	0.60138	0.36064	0.1881	-0.175
C 	C 	0.26386	0.40452	0.1937	-0.173
C 	C 	0.45671	0.33412	0.25581	-0.182
C 	C 	0.9916	0.56633	0.86945	0.003
C 	C 	0.98582	0.55501	0.88885	-0.071
C 	C 	0.2276	0.57475	0.89134	0.018
C 	C 	0.2546	0.58432	0.87202	-0.065
C 	C 	0.78208	0.6198	0.77127	-0.052
C 	C 	0.66679	0.61243	0.78754	0.032
C 	C 	0.58859	0.64666	0.75643	0.059
C 	C 	0.46293	0.63846	0.7722	-0.08
C 	C 	0.09866	0.55925	0.89987	0.001
C 	C 	0.13941	0.58038	0.86067	0.004
C 	C 	0.49873	0.62131	0.78772	-0.004
C 	C 	0.74356	0.63663	0.75552	-0.056
C 	C 	0.89826	0.49678	0.98686	-0.072
C 	C 	0.86971	0.48526	0.00609	0.04
C 	C 	0.96995	0.48953	0.01804	-0.011
C 	C 	0.67389	0.38006	0.18232	0.04
C 	C 	0.77044	0.39067	0.16497	-0.067
C 	C 	0.81202	0.40984	0.15726	-0.016
C 	C 	0.77822	0.41781	0.16868	0.043
C 	C 	0.70319	0.40653	0.18686	-0.07
C 	C 	0.635	0.38831	0.19321	-0.01
C 	C 	0.19112	0.64703	0.72542	0.125
C 	C 	0.06815	0.64303	0.74041	-0.127
C 	C 	0.87144	0.64326	0.73869	0.095
C 	C 	0.79966	0.64726	0.7216	-0.253
C 	C 	0.10499	0.34915	0.29238	0.202
C 	C 	0.90304	0.3474	0.29153	-0.244
C 	C 	0.76249	0.34052	0.30769	0.469
C 	C 	0.2562	0.65898	0.69255	0.521
C 	C 	0.12315	0.65188	0.70792	-0.331
C 	C 	0.92154	0.65119	0.70633	0.337
C 	C 	0.22221	0.35387	0.27658	-0.18
C 	C 	0.14583	0.35682	0.26	0.058
C 	C 	0.94892	0.35549	0.25915	-0.094
C 	C 	0.83031	0.35101	0.27456	0.079
C 	C 	0.36305	0.61269	0.80424	-0.011
C 	C 	0.29288	0.59452	0.81061	-0.069
C 	C 	0.21752	0.58331	0.8288	0.043
C 	C 	0.18409	0.59139	0.84012	-0.016
C 	C 	0.22623	0.61057	0.83233	-0.067
C 	C 	0.32404	0.62105	0.81503	0.041
C 	C 	0.0261	0.51227	0.97943	-0.012
C 	C 	0.12628	0.51656	0.99137	0.04
C 	C 	0.09773	0.50501	0.0106	-0.072
C 	C 	0.2681	0.36358	0.24285	-0.042
C 	C 	0.50321	0.37939	0.21	-0.005
C 	C 	0.85684	0.42093	0.13673	0.005
C 	C 	0.89788	0.44229	0.09755	0.001
C 	C 	0.54493	0.36236	0.22537	-0.077
C 	C 	0.42423	0.3539	0.24148	0.053
C 	C 	0.33359	0.38785	0.21063	0.035
C 	C 	0.22277	0.38022	0.22721	-0.058
C 	C 	0.74179	0.41709	0.12533	-0.066
C 	C 	0.76895	0.42678	0.10598	0.018
C 	C 	0.01063	0.44641	0.10866	-0.071
C 	C 	0.00477	0.43497	0.12806	0.003
C 	C 	0.56486	0.6665	0.74165	-0.185
C 	C 	0.73062	0.59559	0.80466	-0.172
C 	C 	0.39785	0.64044	0.80922	-0.175
C 	C 	0.19444	0.56291	0.83534	-0.18
C 	C 	0.83742	0.56293	0.859	-0.086
C 	C 	0.32603	0.58227	0.90228	-0.087
C 	C 	0.26077	0.53338	0.98383	-0.176
C 	C 	0.94784	0.47767	0.0384	-0.007
C 	C 	0.78875	0.47837	0.04873	0.04
C 	C 	0.77671	0.4666	0.06801	-0.072
C 	C 	0.9196	0.45428	0.07717	-0.01
C 	C 	0.08148	0.4541	0.06685	0.037
C 	C 	0.09284	0.46572	0.04757	-0.075
C 	C 	0.63188	0.49155	0.03995	-0.178
C 	C 	0.2452	0.44196	0.07565	-0.179
C 	C 	0.19563	0.59415	0.90684	-0.058
C 	C 	0.13301	0.6118	0.8896	-0.054
C 	C 	0.93742	0.60903	0.88329	-0.081
C 	C 	0.887	0.62638	0.86536	-0.045
C 	C 	0.70243	0.62305	0.85804	-0.147
C 	C 	0.63579	0.5644	0.86584	-0.056
C 	C 	0.50465	0.54714	0.87153	-0.067
C 	C 	0.55678	0.53007	0.88959	-0.072
C 	C 	0.40282	0.51444	0.89607	-0.039
C 	C 	0.45889	0.49709	0.91352	-0.148
C 	C 	0.62102	0.08428	0.41143	-0.147
C 	C 	0.69458	0.10167	0.41142	-0.04
C 	C 	0.54725	0.10807	0.42067	-0.072
C 	C 	0.61759	0.12607	0.4198	-0.067
C 	C 	0.49228	0.13167	0.43146	-0.056
C 	C 	0.4333	0.13906	0.48253	-0.152
C 	C 	0.24136	0.13169	0.49316	-0.032
C 	C 	0.17308	0.11382	0.49362	-0.085
C 	C 	0.97118	0.10747	0.50269	-0.054
C 	C 	0.89141	0.0903	0.50214	-0.05
C 	C 	0.6732	0.92171	0.51856	-0.181
C 	C 	0.32212	0.95761	0.53223	-0.177
C 	C 	0.85353	0.94984	0.51411	-0.078
C 	C 	0.8457	0.93055	0.52185	0.044
C 	C 	0.99731	0.92027	0.53239	-0.018
C 	C 	0.14938	0.92948	0.53548	-0.065
C 	C 	0.1565	0.94877	0.52789	0.037
C 	C 	0.00762	0.95906	0.51685	-0.005
C 	C 	0.74884	0.01364	0.51794	-0.176
C 	C 	0.7656	0.09496	0.48568	-0.089
C 	C 	0.29758	0.13859	0.42317	-0.086
C 	C 	0.96349	0.16223	0.39956	-0.159
C 	C 	0.78948	0.1881	0.45126	-0.176
C 	C 	0.45756	0.1937	0.40178	-0.172
C 	C 	0.71252	0.25581	0.41007	-0.186
C 	C 	0.86105	0.86945	0.56422	-0.002
C 	C 	0.87467	0.88885	0.55614	-0.059
C 	C 	0.11894	0.89134	0.53391	0.03
C 	C 	0.12662	0.87202	0.54366	-0.071
C 	C 	0.55335	0.77127	0.60893	-0.045
C 	C 	0.45433	0.78754	0.60003	0.03
C 	C 	0.34502	0.75643	0.59691	0.065
C 	C 	0.23513	0.7722	0.58934	-0.081
C 	C 	0.99853	0.89987	0.54088	-0.017
C 	C 	8e-05	0.86067	0.55895	0.008
C 	C 	0.28645	0.78772	0.59097	-0.001
C 	C 	0.49908	0.75552	0.60785	-0.065
C 	C 	0.88512	0.98686	0.51636	-0.071
C 	C 	0.8758	0.00609	0.50865	0.04
C 	C 	0.98799	0.01804	0.49243	-0.011
C 	C 	0.85621	0.18232	0.43762	0.042
C 	C 	0.93541	0.16497	0.44436	-0.068
C 	C 	0.96928	0.15726	0.4329	-0.013
C 	C 	0.9469	0.16868	0.41351	0.038
C 	C 	0.89005	0.18686	0.40661	-0.066
C 	C 	0.82821	0.19321	0.41848	-0.011
C 	C 	0.91654	0.72542	0.62755	0.105
C 	C 	0.80856	0.74041	0.61656	-0.157
C 	C 	0.61013	0.73869	0.61805	0.128
C 	C 	0.52126	0.7216	0.63114	-0.27
C 	C 	0.39737	0.29238	0.35847	0.235
C 	C 	0.19457	0.29153	0.36107	-0.269
C 	C 	0.07018	0.30769	0.35179	0.441
C 	C 	0.94875	0.69255	0.64847	0.495
C 	C 	0.83107	0.70792	0.6402	-0.354
C 	C 	0.62787	0.70633	0.64248	0.369
C 	C 	0.49879	0.27658	0.36955	-0.197
C 	C 	0.40583	0.26	0.38318	0.091
C 	C 	0.20807	0.25915	0.38536	-0.125
C 	C 	0.10487	0.27456	0.37443	0.059
C 	C 	0.16729	0.80424	0.58307	-0.012
C 	C 	0.10349	0.81061	0.59487	-0.066
C 	C 	0.04632	0.8288	0.58789	0.038
C 	C 	0.02421	0.84012	0.56849	-0.014
C 	C 	0.05856	0.83233	0.5571	-0.068
C 	C 	0.13907	0.81503	0.56392	0.042
C 	C 	0.00553	0.97943	0.5083	-0.013
C 	C 	0.11765	0.99137	0.49207	0.041
C 	C 	0.10833	0.0106	0.48439	-0.073
C 	C 	0.51095	0.24285	0.39357	-0.051
C 	C 	0.71321	0.21	0.41061	-0.002
C 	C 	0.99357	0.13673	0.44234	0.005
C 	C 	0.99543	0.09755	0.46016	0.002
C 	C 	0.7703	0.22537	0.41227	-0.079
C 	C 	0.66571	0.24148	0.40462	0.059
C 	C 	0.54422	0.21063	0.40152	0.033
C 	C 	0.44998	0.22721	0.39257	-0.051
C 	C 	0.86712	0.12533	0.45758	-0.066
C 	C 	0.87493	0.10598	0.46724	0.019
C 	C 	0.11929	0.10866	0.44493	-0.072
C 	C 	0.13283	0.12806	0.43697	0.003
C 	C 	0.30651	0.74165	0.59185	-0.188
C 	C 	0.53528	0.80466	0.59975	-0.171
C 	C 	0.20707	0.80922	0.55034	-0.176
C 	C 	0.02978	0.83534	0.60175	-0.16
C 	C 	0.69642	0.859	0.57807	-0.084
C 	C 	0.22831	0.90228	0.51545	-0.093
C 	C 	0.2446	0.98383	0.48279	-0.177
C 	C 	0.98624	0.0384	0.48393	-0.007
C 	C 	0.83748	0.04873	0.4729	0.04
C 	C 	0.84472	0.06801	0.46539	-0.072
C 	C 	0.99677	0.07717	0.46855	-0.009
C 	C 	0.14833	0.06685	0.47905	0.037
C 	C 	0.14041	0.04757	0.48671	-0.076
C 	C 	0.67183	0.03995	0.4685	-0.178
C 	C 	0.32085	0.07565	0.48239	-0.178
C 	C 	0.10247	0.90684	0.49901	-0.05
C 	C 	0.02261	0.8896	0.4986	-0.055
C 	C 	0.82071	0.88329	0.50768	-0.084
C 	C 	0.75236	0.86536	0.50826	-0.032
C 	C 	0.56047	0.85804	0.51891	-0.151
C 	C 	0.50163	0.86584	0.56976	-0.056
C 	C 	0.37618	0.87153	0.58133	-0.067
C 	C 	0.44637	0.88959	0.58034	-0.072
C 	C 	0.29889	0.89607	0.58949	-0.039
C 	C 	0.37241	0.91352	0.58939	-0.148
C 	C 	0.03245	0.41143	0.50429	-0.151
C 	C 	0.106	0.41142	0.48691	-0.048
C 	C 	0.96792	0.42067	0.47126	-0.053
C 	C 	0.03739	0.4198	0.45413	-0.091
C 	C 	0.92374	0.43146	0.43687	-0.029
C 	C 	0.91583	0.48253	0.37841	-0.138
C 	C 	0.73452	0.49316	0.37515	-0.038
C 	C 	0.6667	0.49362	0.39256	-0.076
C 	C 	0.47387	0.50269	0.38984	-0.06
C 	C 	0.39355	0.50214	0.40756	-0.057
C 	C 	0.19176	0.51856	0.55973	-0.181
C 	C 	0.85435	0.53223	0.51016	-0.178
C 	C 	0.36764	0.51411	0.53605	-0.074
C 	C 	0.36755	0.52185	0.5476	0.043
C 	C 	0.5297	0.53239	0.54734	-0.014
C 	C 	0.68486	0.53548	0.53504	-0.071
C 	C 	0.68439	0.52789	0.52334	0.04
C 	C 	0.52447	0.51685	0.52409	-0.01
C 	C 	0.26678	0.51794	0.46842	-0.176
C 	C 	0.25128	0.48568	0.41936	-0.087
C 	C 	0.72075	0.42317	0.43824	-0.097
C 	C 	0.36305	0.39956	0.43821	-0.178
C 	C 	0.24074	0.45126	0.36064	-0.173
C 	C 	0.85934	0.40178	0.40452	-0.187
C 	C 	0.12259	0.41007	0.33412	-0.168
C 	C 	0.42527	0.56422	0.56633	0.017
C 	C 	0.43081	0.55614	0.55501	-0.067
C 	C 	0.65285	0.53391	0.57475	0.016
C 	C 	0.67028	0.54366	0.58432	-0.063
C 	C 	0.16228	0.60893	0.6198	-0.06
C 	C 	0.05436	0.60003	0.61243	0.06
C 	C 	0.94193	0.59691	0.64666	0.039
C 	C 	0.82447	0.58934	0.63846	-0.069
C 	C 	0.53941	0.54088	0.55925	-0.004
C 	C 	0.55903	0.55895	0.58038	-0.008
C 	C 	0.87742	0.59097	0.62131	-0.029
C 	C 	0.10693	0.60785	0.63663	-0.038
C 	C 	0.40148	0.51636	0.49678	-0.071
C 	C 	0.38445	0.50865	0.48526	0.04
C 	C 	0.48042	0.49243	0.48953	-0.012
C 	C 	0.29383	0.43762	0.38006	0.035
C 	C 	0.37977	0.44436	0.39067	-0.068
C 	C 	0.40218	0.4329	0.40984	-0.015
C 	C 	0.36041	0.41351	0.41781	0.04
C 	C 	0.29666	0.40661	0.40653	-0.076
C 	C 	0.24669	0.41848	0.38831	-0.003
C 	C 	0.54409	0.62755	0.64703	0.15
C 	C 	0.42512	0.61656	0.64303	-0.171
C 	C 	0.22818	0.61805	0.64326	0.131
C 	C 	0.1524	0.63114	0.64726	-0.271
C 	C 	0.75584	0.35847	0.34915	0.231
C 	C 	0.55564	0.36107	0.3474	-0.281
C 	C 	0.42197	0.35179	0.34052	0.478
C 	C 	0.59722	0.64847	0.65898	0.535
C 	C 	0.47127	0.6402	0.65188	-0.376
C 	C 	0.27035	0.64248	0.65119	0.38
C 	C 	0.86834	0.36955	0.35387	-0.158
C 	C 	0.78901	0.38318	0.35682	0.078
C 	C 	0.59343	0.38536	0.35549	-0.129
C 	C 	0.4793	0.37443	0.35101	0.097
C 	C 	0.75036	0.58307	0.61269	-0.006
C 	C 	0.69836	0.59487	0.59452	-0.075
C 	C 	0.63421	0.58789	0.58331	0.039
C 	C 	0.5927	0.56849	0.59139	-0.015
C 	C 	0.61566	0.5571	0.61057	-0.068
C 	C 	0.70299	0.56392	0.62105	0.036
C 	C 	0.51383	0.5083	0.51227	-0.012
C 	C 	0.60972	0.49207	0.51656	0.04
C 	C 	0.59272	0.48439	0.50501	-0.071
C 	C 	0.90452	0.39357	0.36358	-0.008
C 	C 	0.12382	0.41061	0.37939	-0.038
C 	C 	0.43591	0.44234	0.42093	-0.008
C 	C 	0.45559	0.46016	0.44229	-0.004
C 	C 	0.18257	0.41227	0.36236	-0.058
C 	C 	0.07033	0.40462	0.3539	0.018
C 	C 	0.94574	0.40152	0.38785	0.07
C 	C 	0.84255	0.39257	0.38022	-0.073
C 	C 	0.3247	0.45758	0.41709	-0.063
C 	C 	0.34217	0.46724	0.42678	0.016
C 	C 	0.56422	0.44493	0.44641	-0.068
C 	C 	0.5698	0.43697	0.43497	0.018
C 	C 	0.89836	0.59185	0.6665	-0.204
C 	C 	0.13503	0.59975	0.59559	-0.183
C 	C 	0.75741	0.55034	0.64044	-0.173
C 	C 	0.63153	0.60175	0.56291	-0.178
C 	C 	0.27449	0.57807	0.56293	-0.096
C 	C 	0.74376	0.51545	0.58227	-0.088
C 	C 	0.72739	0.48279	0.53338	-0.176
C 	C 	0.47017	0.48393	0.47767	-0.009
C 	C 	0.31038	0.4729	0.47837	0.039
C 	C 	0.31011	0.46539	0.4666	-0.071
C 	C 	0.46532	0.46855	0.45428	-0.014
C 	C 	0.62738	0.47905	0.4541	0.043
C 	C 	0.62712	0.48671	0.46572	-0.074
C 	C 	0.14033	0.4685	0.49155	-0.178
C 	C 	0.80324	0.48239	0.44196	-0.181
C 	C 	0.60148	0.49901	0.59415	-0.057
C 	C 	0.52121	0.4986	0.6118	-0.06
C 	C 	0.32839	0.50768	0.60903	-0.076
C 	C 	0.26062	0.50826	0.62638	-0.037
C 	C 	0.07938	0.51891	0.62305	-0.14
C 	C 	0.07139	0.56976	0.5644	-0.033
C 	C 	0.95751	0.58133	0.54714	-0.086
C 	C 	0.02671	0.58034	0.53007	-0.057
C 	C 	0.88838	0.58949	0.51444	-0.046
C 	C 	0.9618	0.58939	0.49709	-0.151
O 	O 	0.19402	0.34866	0.30746	-0.62
O 	O 	0.81617	0.33709	0.32352	-0.725
O 	O 	0.587	0.33783	0.30539	-0.529
O 	O 	0.43369	0.66077	0.69488	-0.541
O 	O 	0.19908	0.66398	0.67643	-0.726
O 	O 	0.84772	0.65324	0.69158	-0.691
O 	O 	0.50148	0.30746	0.34388	-0.619
O 	O 	0.13969	0.32352	0.33939	-0.737
O 	O 	0.89239	0.30539	0.35678	-0.506
O 	O 	0.12857	0.69488	0.64435	-0.519
O 	O 	0.87551	0.67643	0.65959	-0.737
O 	O 	0.5393	0.69158	0.65518	-0.692
O 	O 	0.84536	0.34388	0.34866	-0.608
O 	O 	0.47908	0.33939	0.33709	-0.738
O 	O 	0.24917	0.35678	0.33783	-0.538
O 	O 	0.77292	0.64435	0.66077	-0.553
O 	O 	0.5351	0.65959	0.66398	-0.739
O 	O 	0.19448	0.65518	0.65324	-0.687
_end
