data_functionalizedCrystal
_audit_creation_method	'EQeq! by Chris Wilmer'
_symmetry_space_group_name_H-M	'P1'
_symmetry_Int_Tables_number	1
_symmetry_cell_setting	triclinic
loop_
_symmetry_equiv_pos_as_xyz
  x,y,z
_cell_length_a	6.7317
_cell_length_b	54.5467
_cell_length_c	54.5467
_cell_angle_alpha	60.1678
_cell_angle_beta	87.6423
_cell_angle_gamma	92.3577
loop_
_atom_site_label
_atom_site_type_symbol
_atom_site_fract_x
_atom_site_fract_y
_atom_site_fract_z
_atom_site_charge
Mg	Mg	0.93677	0.35303	0.32999	1.468
Mg	Mg	0.26676	0.32999	0.31698	1.471
Mg	Mg	0.58374	0.31698	0.35303	1.471
Mg	Mg	0.06323	0.64697	0.67001	1.468
Mg	Mg	0.73324	0.67001	0.68302	1.471
Mg	Mg	0.41626	0.68302	0.64697	1.471
H 	H 	0.93149	0.36548	0.38837	0.085
H 	H 	0.44771	0.41208	0.39468	0.059
H 	H 	0.23291	0.39324	0.37209	0.015
H 	H 	0.02124	0.41318	0.48395	0.046
H 	H 	0.49786	0.49792	0.43261	0.059
H 	H 	0.13992	0.48446	0.50567	0.055
H 	H 	0.00957	0.4686	0.39576	0.061
H 	H 	0.92903	0.36389	0.43637	0.038
H 	H 	0.85409	0.449	0.34631	0.057
H 	H 	0.85857	0.47724	0.3546	0.055
H 	H 	0.63592	0.45415	0.36361	0.06
H 	H 	0.3104	0.38864	0.46961	0.065
H 	H 	0.27048	0.36372	0.45759	0.063
H 	H 	0.08939	0.36404	0.48314	0.062
H 	H 	0.59887	0.47386	0.40159	0.065
H 	H 	0.39741	0.49654	0.38614	0.072
H 	H 	0.38403	0.46071	0.39195	0.065
H 	H 	0.01363	0.4351	0.52366	0.066
H 	H 	0.27693	0.43387	0.53098	0.065
H 	H 	0.15369	0.4052	0.52916	0.061
H 	H 	0.05759	0.50885	0.45581	0.041
H 	H 	0.86137	0.53319	0.44304	0.03
H 	H 	0.78326	0.5179	0.4084	0.032
H 	H 	0.97837	0.49308	0.42108	0.035
H 	H 	0.92445	0.54693	0.36357	0.015
H 	H 	0.11785	0.52237	0.37048	0.027
H 	H 	0.17694	0.58499	0.3551	0.041
H 	H 	0.21756	0.57175	0.33049	0.024
H 	H 	0.68427	0.58162	0.33961	0.022
H 	H 	0.48814	0.60435	0.3354	0.028
H 	H 	0.71935	0.56929	0.38887	0.035
H 	H 	0.72531	0.60709	0.36694	0.029
H 	H 	0.41508	0.54583	0.41896	0.055
H 	H 	0.5655	0.56558	0.43154	0.035
H 	H 	0.29852	0.56807	0.43037	0.043
H 	H 	0.31986	0.38837	0.24615	0.097
H 	H 	0.84239	0.39468	0.19324	0.064
H 	H 	0.605	0.37209	0.23467	0.004
H 	H 	0.50519	0.48395	0.10287	0.046
H 	H 	0.93047	0.43261	0.06947	0.058
H 	H 	0.64559	0.50567	0.00987	0.055
H 	H 	0.40533	0.39576	0.13564	0.044
H 	H 	0.3654	0.43637	0.19974	0.039
H 	H 	0.2004	0.34631	0.20469	0.059
H 	H 	0.21317	0.3546	0.16816	0.056
H 	H 	0.99953	0.36361	0.18224	0.047
H 	H 	0.78001	0.46961	0.14175	0.062
H 	H 	0.72807	0.45759	0.17869	0.057
H 	H 	0.57253	0.48314	0.15282	0.059
H 	H 	0.00046	0.40159	0.12455	0.075
H 	H 	0.78355	0.38614	0.11732	0.073
H 	H 	0.77598	0.39195	0.14734	0.064
H 	H 	0.53729	0.52366	0.04124	0.066
H 	H 	0.80791	0.53098	0.03515	0.065
H 	H 	0.68285	0.52916	0.06564	0.061
H 	H 	0.5134	0.45581	0.03534	0.038
H 	H 	0.30441	0.44304	0.02377	0.03
H 	H 	0.19166	0.4084	0.0737	0.033
H 	H 	0.39945	0.42108	0.08584	0.039
H 	H 	0.28802	0.36357	0.0895	0.023
H 	H 	0.48833	0.37048	0.10715	0.027
H 	H 	0.53204	0.3551	0.05991	0.04
H 	H 	0.54805	0.33049	0.09776	0.022
H 	H 	0.02388	0.33961	0.07877	0.026
H 	H 	0.82354	0.3354	0.06025	0.028
H 	H 	0.10822	0.38887	0.04184	0.036
H 	H 	0.09225	0.36694	0.02597	0.03
H 	H 	0.83404	0.41896	0.03521	0.055
H 	H 	0.99704	0.43154	0.00288	0.036
H 	H 	0.72889	0.43037	0.00156	0.044
H 	H 	0.56601	0.24615	0.36548	0.086
H 	H 	0.03563	0.19324	0.41208	0.052
H 	H 	0.83967	0.23467	0.39324	0.024
H 	H 	0.60806	0.10287	0.41318	0.046
H 	H 	0.99994	0.06947	0.49792	0.057
H 	H 	0.65546	0.00987	0.48446	0.055
H 	H 	0.54097	0.13564	0.4686	0.044
H 	H 	0.56514	0.19974	0.36389	0.039
H 	H 	0.40509	0.20469	0.449	0.059
H 	H 	0.38133	0.16816	0.47724	0.057
H 	H 	0.18177	0.18224	0.45415	0.062
H 	H 	0.92176	0.14175	0.38864	0.062
H 	H 	0.90676	0.17869	0.36372	0.056
H 	H 	0.72535	0.15282	0.36404	0.058
H 	H 	0.12501	0.12455	0.47386	0.074
H 	H 	0.90087	0.11732	0.49654	0.072
H 	H 	0.92332	0.14734	0.46071	0.061
H 	H 	0.57853	0.04124	0.4351	0.066
H 	H 	0.84306	0.03515	0.43387	0.064
H 	H 	0.74849	0.06564	0.4052	0.061
H 	H 	0.54874	0.03534	0.50885	0.038
H 	H 	0.32818	0.02377	0.53319	0.03
H 	H 	0.26536	0.0737	0.5179	0.033
H 	H 	0.48529	0.08584	0.49308	0.039
H 	H 	0.37752	0.0895	0.54693	0.023
H 	H 	0.59548	0.10715	0.52237	0.026
H 	H 	0.59195	0.05991	0.58499	0.04
H 	H 	0.64581	0.09776	0.57175	0.021
H 	H 	0.10265	0.07877	0.58162	0.026
H 	H 	0.88379	0.06025	0.60435	0.028
H 	H 	0.15006	0.04184	0.56929	0.035
H 	H 	0.11822	0.02597	0.60709	0.029
H 	H 	0.86925	0.03521	0.54583	0.054
H 	H 	0.99992	0.00288	0.56558	0.035
H 	H 	0.73045	0.00156	0.56807	0.044
H 	H 	0.06851	0.63452	0.61163	0.085
H 	H 	0.55229	0.58792	0.60532	0.059
H 	H 	0.76709	0.60676	0.62791	0.015
H 	H 	0.97876	0.58682	0.51605	0.046
H 	H 	0.50214	0.50208	0.56739	0.059
H 	H 	0.86008	0.51554	0.49433	0.055
H 	H 	0.99043	0.5314	0.60424	0.061
H 	H 	0.07097	0.63611	0.56363	0.038
H 	H 	0.14591	0.551	0.65369	0.057
H 	H 	0.14143	0.52276	0.6454	0.055
H 	H 	0.36408	0.54585	0.63639	0.06
H 	H 	0.6896	0.61136	0.53039	0.065
H 	H 	0.72952	0.63628	0.54241	0.063
H 	H 	0.91061	0.63596	0.51686	0.062
H 	H 	0.40113	0.52614	0.59841	0.065
H 	H 	0.60259	0.50346	0.61386	0.072
H 	H 	0.61597	0.53929	0.60805	0.065
H 	H 	0.98637	0.5649	0.47634	0.066
H 	H 	0.72307	0.56613	0.46902	0.065
H 	H 	0.84631	0.5948	0.47084	0.061
H 	H 	0.94241	0.49115	0.54419	0.041
H 	H 	0.13863	0.46681	0.55696	0.03
H 	H 	0.21674	0.4821	0.5916	0.032
H 	H 	0.02163	0.50692	0.57892	0.035
H 	H 	0.07555	0.45307	0.63643	0.015
H 	H 	0.88215	0.47763	0.62952	0.027
H 	H 	0.82306	0.41501	0.6449	0.041
H 	H 	0.78244	0.42825	0.66951	0.024
H 	H 	0.31573	0.41838	0.66039	0.022
H 	H 	0.51186	0.39565	0.6646	0.028
H 	H 	0.28065	0.43071	0.61113	0.035
H 	H 	0.27469	0.39291	0.63306	0.029
H 	H 	0.58492	0.45417	0.58104	0.055
H 	H 	0.4345	0.43442	0.56846	0.035
H 	H 	0.70148	0.43193	0.56963	0.043
H 	H 	0.68014	0.61163	0.75385	0.097
H 	H 	0.15761	0.60532	0.80676	0.064
H 	H 	0.395	0.62791	0.76533	0.004
H 	H 	0.49481	0.51605	0.89713	0.046
H 	H 	0.06953	0.56739	0.93053	0.058
H 	H 	0.35441	0.49433	0.99013	0.055
H 	H 	0.59467	0.60424	0.86436	0.044
H 	H 	0.6346	0.56363	0.80026	0.039
H 	H 	0.7996	0.65369	0.79531	0.059
H 	H 	0.78683	0.6454	0.83184	0.056
H 	H 	0.00047	0.63639	0.81776	0.047
H 	H 	0.21999	0.53039	0.85825	0.062
H 	H 	0.27193	0.54241	0.82131	0.057
H 	H 	0.42747	0.51686	0.84718	0.059
H 	H 	0.99954	0.59841	0.87545	0.075
H 	H 	0.21645	0.61386	0.88268	0.073
H 	H 	0.22402	0.60805	0.85266	0.064
H 	H 	0.46271	0.47634	0.95876	0.066
H 	H 	0.19209	0.46902	0.96485	0.065
H 	H 	0.31715	0.47084	0.93436	0.061
H 	H 	0.4866	0.54419	0.96466	0.038
H 	H 	0.69559	0.55696	0.97623	0.03
H 	H 	0.80834	0.5916	0.9263	0.033
H 	H 	0.60055	0.57892	0.91416	0.039
H 	H 	0.71198	0.63643	0.9105	0.023
H 	H 	0.51167	0.62952	0.89285	0.027
H 	H 	0.46796	0.6449	0.94009	0.04
H 	H 	0.45195	0.66951	0.90224	0.022
H 	H 	0.97612	0.66039	0.92123	0.026
H 	H 	0.17646	0.6646	0.93975	0.028
H 	H 	0.89178	0.61113	0.95816	0.036
H 	H 	0.90775	0.63306	0.97403	0.03
H 	H 	0.16596	0.58104	0.96479	0.055
H 	H 	0.00296	0.56846	0.99712	0.036
H 	H 	0.27111	0.56963	0.99844	0.044
H 	H 	0.43399	0.75385	0.63452	0.086
H 	H 	0.96437	0.80676	0.58792	0.052
H 	H 	0.16033	0.76533	0.60676	0.024
H 	H 	0.39194	0.89713	0.58682	0.046
H 	H 	6e-05	0.93053	0.50208	0.057
H 	H 	0.34454	0.99013	0.51554	0.055
H 	H 	0.45903	0.86436	0.5314	0.044
H 	H 	0.43486	0.80026	0.63611	0.039
H 	H 	0.59491	0.79531	0.551	0.059
H 	H 	0.61867	0.83184	0.52276	0.057
H 	H 	0.81823	0.81776	0.54585	0.062
H 	H 	0.07824	0.85825	0.61136	0.062
H 	H 	0.09324	0.82131	0.63628	0.056
H 	H 	0.27465	0.84718	0.63596	0.058
H 	H 	0.87499	0.87545	0.52614	0.074
H 	H 	0.09913	0.88268	0.50346	0.072
H 	H 	0.07668	0.85266	0.53929	0.061
H 	H 	0.42147	0.95876	0.5649	0.066
H 	H 	0.15694	0.96485	0.56613	0.064
H 	H 	0.25151	0.93436	0.5948	0.061
H 	H 	0.45126	0.96466	0.49115	0.038
H 	H 	0.67182	0.97623	0.46681	0.03
H 	H 	0.73464	0.9263	0.4821	0.033
H 	H 	0.51471	0.91416	0.50692	0.039
H 	H 	0.62248	0.9105	0.45307	0.023
H 	H 	0.40452	0.89285	0.47763	0.026
H 	H 	0.40805	0.94009	0.41501	0.04
H 	H 	0.35419	0.90224	0.42825	0.021
H 	H 	0.89735	0.92123	0.41838	0.026
H 	H 	0.11621	0.93975	0.39565	0.028
H 	H 	0.84994	0.95816	0.43071	0.035
H 	H 	0.88178	0.97403	0.39291	0.029
H 	H 	0.13075	0.96479	0.45417	0.054
H 	H 	8e-05	0.99712	0.43442	0.035
H 	H 	0.26955	0.99844	0.43193	0.044
C 	C 	0.31889	0.35819	0.35177	0.487
C 	C 	0.4563	0.36792	0.36663	-0.28
C 	C 	0.65964	0.36059	0.37103	0.242
C 	C 	0.78088	0.37214	0.38381	-0.191
C 	C 	0.70987	0.39163	0.3913	0.091
C 	C 	0.50898	0.39812	0.3878	-0.13
C 	C 	0.38486	0.38673	0.37536	0.097
C 	C 	0.19394	0.44087	0.44432	-0.018
C 	C 	0.13317	0.43098	0.47304	-0.059
C 	C 	0.21716	0.44321	0.48815	0.042
C 	C 	0.35092	0.46802	0.47345	0.006
C 	C 	0.4046	0.47839	0.44446	-0.066
C 	C 	0.33913	0.46423	0.43027	0.054
C 	C 	0.43039	0.48418	0.48718	-0.018
C 	C 	0.63408	0.49446	0.48279	0.104
C 	C 	0.29817	0.49076	0.50357	-0.086
C 	C 	0.84503	0.40466	0.4034	-0.049
C 	C 	0.09059	0.42787	0.42922	0.014
C 	C 	0.99359	0.44572	0.40456	-0.11
C 	C 	0.87787	0.43459	0.39088	0.061
C 	C 	0.07448	0.39807	0.43992	0.047
C 	C 	0.94734	0.38681	0.4274	-0.068
C 	C 	0.80186	0.45485	0.36233	-0.184
C 	C 	0.1927	0.37761	0.46401	-0.176
C 	C 	0.43319	0.47431	0.40078	-0.183
C 	C 	0.16223	0.42873	0.51975	-0.174
C 	C 	0.90925	0.51226	0.44665	0.014
C 	C 	0.93109	0.5138	0.41783	0.007
C 	C 	0.07536	0.54128	0.37187	0.028
C 	C 	0.22421	0.56653	0.35305	0.014
C 	C 	0.55242	0.58416	0.35109	0.019
C 	C 	0.62506	0.58726	0.37585	0.012
C 	C 	0.43512	0.56614	0.41926	-0.03
C 	C 	0.67066	0.35177	0.29004	0.497
C 	C 	0.82293	0.36663	0.26545	-0.317
C 	C 	0.03067	0.37103	0.26838	0.28
C 	C 	0.16469	0.38381	0.24405	-0.208
C 	C 	0.10117	0.3913	0.21707	0.126
C 	C 	0.89678	0.3878	0.21408	-0.167
C 	C 	0.76022	0.37536	0.23791	0.117
C 	C 	0.63826	0.44432	0.11481	-0.015
C 	C 	0.60621	0.47304	0.09598	-0.061
C 	C 	0.70531	0.48815	0.06864	0.042
C 	C 	0.82437	0.47345	0.05853	0.006
C 	C 	0.84906	0.44446	0.07715	-0.067
C 	C 	0.7694	0.43027	0.1055	0.054
C 	C 	0.91757	0.48718	0.02864	-0.02
C 	C 	0.11687	0.48279	0.02275	0.106
C 	C 	0.80174	0.50357	0.00567	-0.086
C 	C 	0.24843	0.4034	0.19194	-0.055
C 	C 	0.51981	0.42922	0.14291	-0.002
C 	C 	0.39815	0.40456	0.14972	-0.077
C 	C 	0.26875	0.39088	0.17453	0.056
C 	C 	0.5144	0.43992	0.16201	0.032
C 	C 	0.37474	0.4274	0.18579	-0.047
C 	C 	0.16419	0.36233	0.18282	-0.163
C 	C 	0.65671	0.46401	0.15838	-0.171
C 	C 	0.83397	0.40078	0.12491	-0.195
C 	C 	0.68198	0.51975	0.05152	-0.174
C 	C 	0.3559	0.44665	0.04109	0.018
C 	C 	0.34892	0.41783	0.06837	0.01
C 	C 	0.44723	0.37187	0.08685	0.018
C 	C 	0.57726	0.35305	0.08042	0.017
C 	C 	0.90351	0.35109	0.06475	0.015
C 	C 	0.00091	0.37585	0.03689	0.014
C 	C 	0.85438	0.41926	0.0146	-0.03
C 	C 	0.9607	0.29004	0.35819	0.424
C 	C 	0.08838	0.26545	0.36792	-0.212
C 	C 	0.29905	0.26838	0.36059	0.219
C 	C 	0.40874	0.24405	0.37214	-0.171
C 	C 	0.31824	0.21707	0.39163	0.072
C 	C 	0.11086	0.21408	0.39812	-0.084
C 	C 	0.99813	0.23791	0.38673	0.026
C 	C 	0.75307	0.11481	0.44087	-0.015
C 	C 	0.70219	0.09598	0.43098	-0.061
C 	C 	0.77395	0.06864	0.44321	0.042
C 	C 	0.8829	0.05853	0.46802	0.006
C 	C 	0.92621	0.07715	0.47839	-0.067
C 	C 	0.8749	0.1055	0.46423	0.053
C 	C 	0.94621	0.02864	0.48418	-0.02
C 	C 	0.13962	0.02275	0.49446	0.106
C 	C 	0.80741	0.00567	0.49076	-0.086
C 	C 	0.44037	0.19194	0.40466	-0.041
C 	C 	0.66272	0.14291	0.42787	-0.004
C 	C 	0.54787	0.14972	0.44572	-0.076
C 	C 	0.44328	0.17453	0.43459	0.052
C 	C 	0.67641	0.16201	0.39807	0.033
C 	C 	0.56053	0.18579	0.38681	-0.054
C 	C 	0.34701	0.18282	0.45485	-0.18
C 	C 	0.81509	0.15838	0.37761	-0.172
C 	C 	0.95888	0.12491	0.47431	-0.195
C 	C 	0.7335	0.05152	0.42873	-0.174
C 	C 	0.39699	0.04109	0.51226	0.018
C 	C 	0.41729	0.06837	0.5138	0.01
C 	C 	0.53408	0.08685	0.54128	0.018
C 	C 	0.65768	0.08042	0.56653	0.017
C 	C 	0.96826	0.06475	0.58416	0.014
C 	C 	0.0378	0.03689	0.58726	0.015
C 	C 	0.86898	0.0146	0.56614	-0.03
C 	C 	0.68111	0.64181	0.64823	0.487
C 	C 	0.5437	0.63208	0.63337	-0.28
C 	C 	0.34036	0.63941	0.62897	0.242
C 	C 	0.21912	0.62786	0.61619	-0.191
C 	C 	0.29013	0.60837	0.6087	0.091
C 	C 	0.49102	0.60188	0.6122	-0.13
C 	C 	0.61514	0.61327	0.62464	0.097
C 	C 	0.80606	0.55913	0.55568	-0.018
C 	C 	0.86683	0.56902	0.52696	-0.059
C 	C 	0.78284	0.55679	0.51185	0.042
C 	C 	0.64908	0.53198	0.52655	0.006
C 	C 	0.5954	0.52161	0.55554	-0.066
C 	C 	0.66087	0.53577	0.56973	0.054
C 	C 	0.56961	0.51582	0.51282	-0.018
C 	C 	0.36592	0.50554	0.51721	0.104
C 	C 	0.70183	0.50924	0.49643	-0.086
C 	C 	0.15497	0.59534	0.5966	-0.049
C 	C 	0.90941	0.57213	0.57078	0.014
C 	C 	0.00641	0.55428	0.59544	-0.11
C 	C 	0.12213	0.56541	0.60912	0.061
C 	C 	0.92552	0.60193	0.56008	0.047
C 	C 	0.05266	0.61319	0.5726	-0.068
C 	C 	0.19814	0.54515	0.63767	-0.184
C 	C 	0.8073	0.62239	0.53599	-0.176
C 	C 	0.56681	0.52569	0.59922	-0.183
C 	C 	0.83777	0.57127	0.48025	-0.174
C 	C 	0.09075	0.48774	0.55335	0.014
C 	C 	0.06891	0.4862	0.58217	0.007
C 	C 	0.92464	0.45872	0.62813	0.028
C 	C 	0.77579	0.43347	0.64695	0.014
C 	C 	0.44758	0.41584	0.64891	0.019
C 	C 	0.37494	0.41274	0.62415	0.012
C 	C 	0.56488	0.43386	0.58074	-0.03
C 	C 	0.32934	0.64823	0.70996	0.497
C 	C 	0.17707	0.63337	0.73455	-0.317
C 	C 	0.96933	0.62897	0.73162	0.28
C 	C 	0.83531	0.61619	0.75595	-0.208
C 	C 	0.89883	0.6087	0.78293	0.126
C 	C 	0.10322	0.6122	0.78592	-0.167
C 	C 	0.23978	0.62464	0.76209	0.117
C 	C 	0.36174	0.55568	0.88519	-0.015
C 	C 	0.39379	0.52696	0.90402	-0.061
C 	C 	0.29469	0.51185	0.93136	0.042
C 	C 	0.17563	0.52655	0.94147	0.006
C 	C 	0.15094	0.55554	0.92285	-0.067
C 	C 	0.2306	0.56973	0.8945	0.054
C 	C 	0.08243	0.51282	0.97136	-0.02
C 	C 	0.88313	0.51721	0.97725	0.106
C 	C 	0.19826	0.49643	0.99433	-0.086
C 	C 	0.75157	0.5966	0.80806	-0.055
C 	C 	0.48019	0.57078	0.85709	-0.002
C 	C 	0.60185	0.59544	0.85028	-0.077
C 	C 	0.73125	0.60912	0.82547	0.056
C 	C 	0.4856	0.56008	0.83799	0.032
C 	C 	0.62526	0.5726	0.81421	-0.047
C 	C 	0.83581	0.63767	0.81718	-0.163
C 	C 	0.34329	0.53599	0.84162	-0.171
C 	C 	0.16603	0.59922	0.87509	-0.195
C 	C 	0.31802	0.48025	0.94848	-0.174
C 	C 	0.6441	0.55335	0.95891	0.018
C 	C 	0.65108	0.58217	0.93163	0.01
C 	C 	0.55277	0.62813	0.91315	0.018
C 	C 	0.42274	0.64695	0.91958	0.017
C 	C 	0.09649	0.64891	0.93525	0.015
C 	C 	0.99909	0.62415	0.96311	0.014
C 	C 	0.14562	0.58074	0.9854	-0.03
C 	C 	0.0393	0.70996	0.64181	0.424
C 	C 	0.91162	0.73455	0.63208	-0.212
C 	C 	0.70095	0.73162	0.63941	0.219
C 	C 	0.59126	0.75595	0.62786	-0.171
C 	C 	0.68176	0.78293	0.60837	0.072
C 	C 	0.88914	0.78592	0.60188	-0.084
C 	C 	0.00187	0.76209	0.61327	0.026
C 	C 	0.24693	0.88519	0.55913	-0.015
C 	C 	0.29781	0.90402	0.56902	-0.061
C 	C 	0.22605	0.93136	0.55679	0.042
C 	C 	0.1171	0.94147	0.53198	0.006
C 	C 	0.07379	0.92285	0.52161	-0.067
C 	C 	0.1251	0.8945	0.53577	0.053
C 	C 	0.05379	0.97136	0.51582	-0.02
C 	C 	0.86038	0.97725	0.50554	0.106
C 	C 	0.19259	0.99433	0.50924	-0.086
C 	C 	0.55963	0.80806	0.59534	-0.041
C 	C 	0.33728	0.85709	0.57213	-0.004
C 	C 	0.45213	0.85028	0.55428	-0.076
C 	C 	0.55672	0.82547	0.56541	0.052
C 	C 	0.32359	0.83799	0.60193	0.033
C 	C 	0.43947	0.81421	0.61319	-0.054
C 	C 	0.65299	0.81718	0.54515	-0.18
C 	C 	0.18491	0.84162	0.62239	-0.172
C 	C 	0.04112	0.87509	0.52569	-0.195
C 	C 	0.2665	0.94848	0.57127	-0.174
C 	C 	0.60301	0.95891	0.48774	0.018
C 	C 	0.58271	0.93163	0.4862	0.01
C 	C 	0.46592	0.91315	0.45872	0.018
C 	C 	0.34232	0.91958	0.43347	0.017
C 	C 	0.03174	0.93525	0.41584	0.014
C 	C 	0.9622	0.96311	0.41274	0.015
C 	C 	0.13102	0.9854	0.43386	-0.03
O 	O 	0.13501	0.36431	0.34985	-0.52
O 	O 	0.3846	0.34426	0.34042	-0.78
O 	O 	0.74431	0.34042	0.36544	-0.622
O 	O 	0.76913	0.48896	0.46571	-0.206
O 	O 	0.07689	0.53591	0.40016	-0.18
O 	O 	0.4201	0.55936	0.36181	-0.179
O 	O 	0.45908	0.58983	0.39138	-0.17
O 	O 	0.48486	0.34985	0.28584	-0.533
O 	O 	0.72502	0.34042	0.31532	-0.79
O 	O 	0.10975	0.36544	0.29414	-0.616
O 	O 	0.23484	0.46571	0.04533	-0.204
O 	O 	0.47705	0.40016	0.06393	-0.182
O 	O 	0.78191	0.36181	0.07883	-0.18
O 	O 	0.85046	0.39138	0.01879	-0.169
O 	O 	0.7707	0.28584	0.36431	-0.519
O 	O 	0.04034	0.31532	0.34426	-0.746
O 	O 	0.40389	0.29414	0.34042	-0.61
O 	O 	0.28017	0.04533	0.48896	-0.205
O 	O 	0.54098	0.06393	0.53591	-0.182
O 	O 	0.86074	0.07883	0.55936	-0.18
O 	O 	0.86925	0.01879	0.58983	-0.17
O 	O 	0.86499	0.63569	0.65015	-0.52
O 	O 	0.6154	0.65574	0.65958	-0.78
O 	O 	0.25569	0.65958	0.63456	-0.622
O 	O 	0.23087	0.51104	0.53429	-0.206
O 	O 	0.92311	0.46409	0.59984	-0.18
O 	O 	0.5799	0.44064	0.63819	-0.179
O 	O 	0.54092	0.41017	0.60862	-0.17
O 	O 	0.51514	0.65015	0.71416	-0.533
O 	O 	0.27498	0.65958	0.68468	-0.79
O 	O 	0.89025	0.63456	0.70586	-0.616
O 	O 	0.76516	0.53429	0.95467	-0.204
O 	O 	0.52295	0.59984	0.93607	-0.182
O 	O 	0.21809	0.63819	0.92117	-0.18
O 	O 	0.14954	0.60862	0.98121	-0.169
O 	O 	0.2293	0.71416	0.63569	-0.519
O 	O 	0.95966	0.68468	0.65574	-0.746
O 	O 	0.59611	0.70586	0.65958	-0.61
O 	O 	0.71983	0.95467	0.51104	-0.205
O 	O 	0.45902	0.93607	0.46409	-0.182
O 	O 	0.13926	0.92117	0.44064	-0.18
O 	O 	0.13075	0.98121	0.41017	-0.17
_end
