data_functionalizedCrystal
_audit_creation_method	'EQeq! by Chris Wilmer'
_symmetry_space_group_name_H-M	'P1'
_symmetry_Int_Tables_number	1
_symmetry_cell_setting	triclinic
loop_
_symmetry_equiv_pos_as_xyz
  x,y,z
_cell_length_a	59.8598
_cell_length_b	59.8597
_cell_length_c	59.8597
_cell_angle_alpha	109.471
_cell_angle_beta	109.471
_cell_angle_gamma	109.471
loop_
_atom_site_label
_atom_site_type_symbol
_atom_site_fract_x
_atom_site_fract_y
_atom_site_fract_z
_atom_site_charge
Zn	Zn	0.58047	0.29979	0.2596	1.197
Zn	Zn	0.65118	0.31267	0.21228	1.213
Zn	Zn	0.54019	0.32087	0.2404	1.197
Zn	Zn	0.60038	0.43889	0.28772	1.213
Zn	Zn	0.95981	0.20021	0.78068	1.197
Zn	Zn	0.89962	0.18734	0.83852	1.213
Zn	Zn	0.91953	0.17913	0.71932	1.197
Zn	Zn	0.84882	0.0611	0.66148	1.213
Zn	Zn	0.28068	0.95981	0.70021	1.197
Zn	Zn	0.33851	0.89961	0.68733	1.213
Zn	Zn	0.21932	0.91953	0.67913	1.197
Zn	Zn	0.16149	0.84883	0.56111	1.213
Zn	Zn	0.7596	0.58047	0.79979	1.197
Zn	Zn	0.71228	0.65118	0.81266	1.213
Zn	Zn	0.7404	0.54019	0.82087	1.197
Zn	Zn	0.78772	0.60038	0.9389	1.213
Zn	Zn	0.32087	0.7404	0.04019	1.197
Zn	Zn	0.4389	0.78772	0.10039	1.213
Zn	Zn	0.29979	0.7596	0.08047	1.197
Zn	Zn	0.31266	0.71228	0.15117	1.213
Zn	Zn	0.17913	0.21932	0.41953	1.197
Zn	Zn	0.0611	0.16148	0.34882	1.213
Zn	Zn	0.20021	0.28068	0.45981	1.197
Zn	Zn	0.18734	0.33852	0.39962	1.213
Zn	Zn	0.20021	0.91953	0.2404	1.197
Zn	Zn	0.18734	0.84883	0.28772	1.213
Zn	Zn	0.17913	0.95981	0.2596	1.197
Zn	Zn	0.0611	0.89961	0.21228	1.213
Zn	Zn	0.29979	0.54019	0.71932	1.197
Zn	Zn	0.31266	0.60038	0.66148	1.213
Zn	Zn	0.32087	0.58047	0.78068	1.197
Zn	Zn	0.4389	0.65118	0.83852	1.213
Zn	Zn	0.54019	0.21932	0.79979	1.197
Zn	Zn	0.60038	0.16148	0.81266	1.213
Zn	Zn	0.58047	0.28068	0.82087	1.197
Zn	Zn	0.65118	0.33852	0.9389	1.213
Zn	Zn	0.91953	0.7404	0.70021	1.197
Zn	Zn	0.84882	0.78772	0.68733	1.213
Zn	Zn	0.95981	0.7596	0.67913	1.197
Zn	Zn	0.89962	0.71228	0.56111	1.213
Zn	Zn	0.7596	0.17913	0.45981	1.197
Zn	Zn	0.71228	0.0611	0.39962	1.213
Zn	Zn	0.7404	0.20021	0.41953	1.197
Zn	Zn	0.78772	0.18734	0.34882	1.213
Zn	Zn	0.28068	0.32087	0.08047	1.197
Zn	Zn	0.33851	0.43889	0.15117	1.213
Zn	Zn	0.21932	0.29979	0.04019	1.197
Zn	Zn	0.16149	0.31267	0.10039	1.213
Zn	Zn	0.41953	0.70021	0.7404	1.197
Zn	Zn	0.34882	0.68733	0.78772	1.213
Zn	Zn	0.45981	0.67913	0.7596	1.197
Zn	Zn	0.39962	0.56111	0.71228	1.213
Zn	Zn	0.04019	0.79979	0.21932	1.197
Zn	Zn	0.10038	0.81266	0.16148	1.213
Zn	Zn	0.08047	0.82087	0.28068	1.197
Zn	Zn	0.15118	0.9389	0.33852	1.213
Zn	Zn	0.71932	0.04019	0.29979	1.197
Zn	Zn	0.66149	0.10039	0.31267	1.213
Zn	Zn	0.78068	0.08047	0.32087	1.197
Zn	Zn	0.83851	0.15117	0.43889	1.213
Zn	Zn	0.2404	0.41953	0.20021	1.197
Zn	Zn	0.28772	0.34882	0.18734	1.213
Zn	Zn	0.2596	0.45981	0.17913	1.197
Zn	Zn	0.21228	0.39962	0.0611	1.213
Zn	Zn	0.67913	0.2596	0.95981	1.197
Zn	Zn	0.5611	0.21228	0.89961	1.213
Zn	Zn	0.70021	0.2404	0.91953	1.197
Zn	Zn	0.68734	0.28772	0.84883	1.213
Zn	Zn	0.82087	0.78068	0.58047	1.197
Zn	Zn	0.9389	0.83852	0.65118	1.213
Zn	Zn	0.79979	0.71932	0.54019	1.197
Zn	Zn	0.81266	0.66148	0.60038	1.213
Zn	Zn	0.79979	0.08047	0.7596	1.197
Zn	Zn	0.81266	0.15117	0.71228	1.213
Zn	Zn	0.82087	0.04019	0.7404	1.197
Zn	Zn	0.9389	0.10039	0.78772	1.213
Zn	Zn	0.70021	0.45981	0.28068	1.197
Zn	Zn	0.68734	0.39962	0.33852	1.213
Zn	Zn	0.67913	0.41953	0.21932	1.197
Zn	Zn	0.5611	0.34882	0.16148	1.213
Zn	Zn	0.45981	0.78068	0.20021	1.197
Zn	Zn	0.39962	0.83852	0.18734	1.213
Zn	Zn	0.41953	0.71932	0.17913	1.197
Zn	Zn	0.34882	0.66148	0.0611	1.213
Zn	Zn	0.08047	0.2596	0.29979	1.197
Zn	Zn	0.15118	0.21228	0.31267	1.213
Zn	Zn	0.04019	0.2404	0.32087	1.197
Zn	Zn	0.10038	0.28772	0.43889	1.213
Zn	Zn	0.2404	0.82087	0.54019	1.197
Zn	Zn	0.28772	0.9389	0.60038	1.213
Zn	Zn	0.2596	0.79979	0.58047	1.197
Zn	Zn	0.21228	0.81266	0.65118	1.213
Zn	Zn	0.71932	0.67913	0.91953	1.197
Zn	Zn	0.66149	0.56111	0.84883	1.213
Zn	Zn	0.78068	0.70021	0.95981	1.197
Zn	Zn	0.83851	0.68733	0.89961	1.213
H 	H 	0.6154	0.2953	0.2333	-0.029
H 	H 	0.5337	0.3301	0.191	-0.018
H 	H 	0.5957	0.3252	0.1619	0.165
H 	H 	0.6174	0.3177	0.1693	0.164
H 	H 	0.6501	0.2687	0.285	0.034
H 	H 	0.6583	0.2361	0.2934	0.059
H 	H 	0.5823	0.1967	0.275	0.062
H 	H 	0.5759	0.2324	0.2733	0.034
H 	H 	0.67	0.1726	0.3042	0.014
H 	H 	0.6626	0.2058	0.2968	0.082
H 	H 	0.5914	0.1741	0.2915	0.087
H 	H 	0.5976	0.1394	0.2952	0.016
H 	H 	0.6536	0.2306	0.2194	0.03
H 	H 	0.6791	0.2172	0.2449	0.074
H 	H 	0.7256	0.2935	0.3059	0.071
H 	H 	0.7009	0.3072	0.2799	0.028
H 	H 	0.562	0.3821	0.2667	-0.028
H 	H 	0.6391	0.3427	0.309	-0.017
H 	H 	0.6633	0.4338	0.3381	0.166
H 	H 	0.6484	0.4481	0.3307	0.165
H 	H 	0.4837	0.3651	0.215	0.035
H 	H 	0.4427	0.3649	0.2066	0.06
H 	H 	0.4217	0.3073	0.225	0.063
H 	H 	0.4591	0.3026	0.2267	0.035
H 	H 	0.3684	0.3658	0.1958	0.014
H 	H 	0.409	0.3658	0.2032	0.082
H 	H 	0.3826	0.2999	0.2085	0.087
H 	H 	0.3442	0.3024	0.2048	0.016
H 	H 	0.5112	0.4342	0.2806	0.03
H 	H 	0.4723	0.4342	0.2551	0.074
H 	H 	0.4876	0.4197	0.1941	0.071
H 	H 	0.5273	0.421	0.2201	0.028
H 	H 	0.938	0.2047	0.8201	-0.028
H 	H 	0.8609	0.1699	0.7036	-0.017
H 	H 	0.8367	0.1748	0.7705	0.166
H 	H 	0.8516	0.1823	0.7997	0.165
H 	H 	0.0163	0.2313	0.8814	0.035
H 	H 	0.0573	0.2639	0.9222	0.06
H 	H 	0.0783	0.3033	0.8856	0.063
H 	H 	0.0409	0.2676	0.8435	0.035
H 	H 	0.1316	0.3274	0.9974	0.014
H 	H 	0.091	0.2942	0.9568	0.082
H 	H 	0.1174	0.3259	0.9173	0.087
H 	H 	0.1558	0.3606	0.9582	0.016
H 	H 	0.9888	0.2694	0.923	0.03
H 	H 	0.0277	0.2828	0.9619	0.074
H 	H 	0.0124	0.2065	0.9321	0.071
H 	H 	0.9727	0.1928	0.8937	0.028
H 	H 	0.8846	0.1179	0.6799	-0.028
H 	H 	0.9663	0.1573	0.7964	-0.017
H 	H 	0.9043	0.0662	0.7295	0.166
H 	H 	0.8826	0.0519	0.7003	0.165
H 	H 	0.8499	0.1349	0.6186	0.035
H 	H 	0.8417	0.1351	0.5778	0.06
H 	H 	0.9177	0.1927	0.6144	0.063
H 	H 	0.9241	0.1974	0.6565	0.035
H 	H 	0.83	0.1342	0.5026	0.014
H 	H 	0.8374	0.1342	0.5432	0.082
H 	H 	0.9086	0.2001	0.5827	0.087
H 	H 	0.9024	0.1976	0.5418	0.016
H 	H 	0.8464	0.0658	0.577	0.03
H 	H 	0.8209	0.0658	0.5381	0.074
H 	H 	0.7744	0.0803	0.5679	0.071
H 	H 	0.7991	0.079	0.6063	0.028
H 	H 	0.3201	0.938	0.7047	-0.028
H 	H 	0.2036	0.8609	0.6699	-0.017
H 	H 	0.2705	0.8367	0.6748	0.166
H 	H 	0.2997	0.8516	0.6823	0.165
H 	H 	0.3814	0.0163	0.7313	0.035
H 	H 	0.4222	0.0573	0.7639	0.06
H 	H 	0.3856	0.0783	0.8033	0.063
H 	H 	0.3435	0.0409	0.7676	0.035
H 	H 	0.4974	0.1316	0.8274	0.014
H 	H 	0.4568	0.091	0.7942	0.082
H 	H 	0.4173	0.1174	0.8259	0.087
H 	H 	0.4582	0.1558	0.8606	0.016
H 	H 	0.423	0.9888	0.7694	0.03
H 	H 	0.4619	0.0277	0.7828	0.074
H 	H 	0.4321	0.0124	0.7065	0.071
H 	H 	0.3937	0.9727	0.6928	0.028
H 	H 	0.1799	0.8846	0.6179	-0.028
H 	H 	0.2964	0.9663	0.6573	-0.017
H 	H 	0.2295	0.9043	0.5662	0.166
H 	H 	0.2003	0.8826	0.5519	0.165
H 	H 	0.1186	0.8499	0.6349	0.035
H 	H 	0.0778	0.8417	0.6351	0.06
H 	H 	0.1144	0.9177	0.6927	0.063
H 	H 	0.1565	0.9241	0.6974	0.035
H 	H 	0.0026	0.83	0.6342	0.014
H 	H 	0.0432	0.8374	0.6342	0.082
H 	H 	0.0827	0.9086	0.7001	0.087
H 	H 	0.0418	0.9024	0.6976	0.016
H 	H 	0.077	0.8464	0.5658	0.03
H 	H 	0.0381	0.8209	0.5658	0.074
H 	H 	0.0679	0.7744	0.5803	0.071
H 	H 	0.1063	0.7991	0.579	0.028
H 	H 	0.7333	0.6154	0.7953	-0.028
H 	H 	0.691	0.5337	0.8301	-0.017
H 	H 	0.6619	0.5957	0.8252	0.166
H 	H 	0.6693	0.6174	0.8177	0.165
H 	H 	0.785	0.6501	0.7687	0.035
H 	H 	0.7934	0.6583	0.7361	0.06
H 	H 	0.775	0.5823	0.6967	0.063
H 	H 	0.7733	0.5759	0.7324	0.035
H 	H 	0.8042	0.67	0.6726	0.014
H 	H 	0.7968	0.6626	0.7058	0.082
H 	H 	0.7915	0.5914	0.6741	0.087
H 	H 	0.7952	0.5976	0.6394	0.016
H 	H 	0.7194	0.6536	0.7306	0.03
H 	H 	0.7449	0.6791	0.7172	0.074
H 	H 	0.8059	0.7256	0.7935	0.071
H 	H 	0.7799	0.7009	0.8072	0.028
H 	H 	0.7667	0.562	0.8821	-0.028
H 	H 	0.809	0.6391	0.8427	-0.017
H 	H 	0.8381	0.6633	0.9338	0.166
H 	H 	0.8307	0.6484	0.9481	0.165
H 	H 	0.715	0.4837	0.8651	0.035
H 	H 	0.7066	0.4427	0.8649	0.06
H 	H 	0.725	0.4217	0.8073	0.063
H 	H 	0.7267	0.4591	0.8026	0.035
H 	H 	0.6958	0.3684	0.8658	0.014
H 	H 	0.7032	0.409	0.8658	0.082
H 	H 	0.7085	0.3826	0.7999	0.087
H 	H 	0.7048	0.3442	0.8024	0.016
H 	H 	0.7806	0.5112	0.9342	0.03
H 	H 	0.7551	0.4723	0.9342	0.074
H 	H 	0.6941	0.4876	0.9197	0.071
H 	H 	0.7201	0.5273	0.921	0.028
H 	H 	0.3821	0.7667	0.062	-0.028
H 	H 	0.3427	0.809	0.1391	-0.017
H 	H 	0.4338	0.8381	0.1633	0.166
H 	H 	0.4481	0.8307	0.1484	0.165
H 	H 	0.3651	0.715	0.9837	0.035
H 	H 	0.3649	0.7066	0.9427	0.06
H 	H 	0.3073	0.725	0.9217	0.063
H 	H 	0.3026	0.7267	0.9591	0.035
H 	H 	0.3658	0.6958	0.8684	0.014
H 	H 	0.3658	0.7032	0.909	0.082
H 	H 	0.2999	0.7085	0.8826	0.087
H 	H 	0.3024	0.7048	0.8442	0.016
H 	H 	0.4342	0.7806	0.0112	0.03
H 	H 	0.4342	0.7551	0.9723	0.074
H 	H 	0.4197	0.6941	0.9876	0.071
H 	H 	0.421	0.7201	0.0273	0.028
H 	H 	0.2953	0.7333	0.1154	-0.028
H 	H 	0.3301	0.691	0.0337	-0.017
H 	H 	0.3252	0.6619	0.0957	0.166
H 	H 	0.3177	0.6693	0.1174	0.165
H 	H 	0.2687	0.785	0.1501	0.035
H 	H 	0.2361	0.7934	0.1583	0.06
H 	H 	0.1967	0.775	0.0823	0.063
H 	H 	0.2324	0.7733	0.0759	0.035
H 	H 	0.1726	0.8042	0.17	0.014
H 	H 	0.2058	0.7968	0.1626	0.082
H 	H 	0.1741	0.7915	0.0914	0.087
H 	H 	0.1394	0.7952	0.0976	0.016
H 	H 	0.2306	0.7194	0.1536	0.03
H 	H 	0.2172	0.7449	0.1791	0.074
H 	H 	0.2935	0.8059	0.2256	0.071
H 	H 	0.3072	0.7799	0.2009	0.028
H 	H 	0.1179	0.1799	0.3846	-0.028
H 	H 	0.1573	0.2964	0.4663	-0.017
H 	H 	0.0662	0.2295	0.4043	0.166
H 	H 	0.0519	0.2003	0.3826	0.165
H 	H 	0.1349	0.1186	0.3499	0.035
H 	H 	0.1351	0.0778	0.3417	0.06
H 	H 	0.1927	0.1144	0.4177	0.063
H 	H 	0.1974	0.1565	0.4241	0.035
H 	H 	0.1342	0.0026	0.33	0.014
H 	H 	0.1342	0.0432	0.3374	0.082
H 	H 	0.2001	0.0827	0.4086	0.087
H 	H 	0.1976	0.0418	0.4024	0.016
H 	H 	0.0658	0.077	0.3464	0.03
H 	H 	0.0658	0.0381	0.3209	0.074
H 	H 	0.0803	0.0679	0.2744	0.071
H 	H 	0.079	0.1063	0.2991	0.028
H 	H 	0.2047	0.3201	0.438	-0.028
H 	H 	0.1699	0.2036	0.3609	-0.017
H 	H 	0.1748	0.2705	0.3367	0.166
H 	H 	0.1823	0.2997	0.3516	0.165
H 	H 	0.2313	0.3814	0.5163	0.035
H 	H 	0.2639	0.4222	0.5573	0.06
H 	H 	0.3033	0.3856	0.5783	0.063
H 	H 	0.2676	0.3435	0.5409	0.035
H 	H 	0.3274	0.4974	0.6316	0.014
H 	H 	0.2942	0.4568	0.591	0.082
H 	H 	0.3259	0.4173	0.6174	0.087
H 	H 	0.3606	0.4582	0.6558	0.016
H 	H 	0.2694	0.423	0.4888	0.03
H 	H 	0.2828	0.4619	0.5277	0.074
H 	H 	0.2065	0.4321	0.5124	0.071
H 	H 	0.1928	0.3937	0.4727	0.028
H 	H 	0.2047	0.8846	0.2667	-0.028
H 	H 	0.1699	0.9663	0.309	-0.017
H 	H 	0.1748	0.9043	0.3381	0.166
H 	H 	0.1823	0.8826	0.3307	0.165
H 	H 	0.2313	0.8499	0.215	0.035
H 	H 	0.2639	0.8417	0.2066	0.06
H 	H 	0.3033	0.9177	0.225	0.063
H 	H 	0.2676	0.9241	0.2267	0.035
H 	H 	0.3274	0.83	0.1958	0.014
H 	H 	0.2942	0.8374	0.2032	0.082
H 	H 	0.3259	0.9086	0.2085	0.087
H 	H 	0.3606	0.9024	0.2048	0.016
H 	H 	0.2694	0.8464	0.2806	0.03
H 	H 	0.2828	0.8209	0.2551	0.074
H 	H 	0.2065	0.7744	0.1941	0.071
H 	H 	0.1928	0.7991	0.2201	0.028
H 	H 	0.1179	0.938	0.2333	-0.028
H 	H 	0.1573	0.8609	0.191	-0.017
H 	H 	0.0662	0.8367	0.1619	0.166
H 	H 	0.0519	0.8516	0.1693	0.165
H 	H 	0.1349	0.0163	0.285	0.035
H 	H 	0.1351	0.0573	0.2934	0.06
H 	H 	0.1927	0.0783	0.275	0.063
H 	H 	0.1974	0.0409	0.2733	0.035
H 	H 	0.1342	0.1316	0.3042	0.014
H 	H 	0.1342	0.091	0.2968	0.082
H 	H 	0.2001	0.1174	0.2915	0.087
H 	H 	0.1976	0.1558	0.2952	0.016
H 	H 	0.0658	0.9888	0.2194	0.03
H 	H 	0.0658	0.0277	0.2449	0.074
H 	H 	0.0803	0.0124	0.3059	0.071
H 	H 	0.079	0.9727	0.2799	0.028
H 	H 	0.2953	0.562	0.6799	-0.028
H 	H 	0.3301	0.6391	0.7964	-0.017
H 	H 	0.3252	0.6633	0.7295	0.166
H 	H 	0.3177	0.6484	0.7003	0.165
H 	H 	0.2687	0.4837	0.6186	0.035
H 	H 	0.2361	0.4427	0.5778	0.06
H 	H 	0.1967	0.4217	0.6144	0.063
H 	H 	0.2324	0.4591	0.6565	0.035
H 	H 	0.1726	0.3684	0.5026	0.014
H 	H 	0.2058	0.409	0.5432	0.082
H 	H 	0.1741	0.3826	0.5827	0.087
H 	H 	0.1394	0.3442	0.5418	0.016
H 	H 	0.2306	0.5112	0.577	0.03
H 	H 	0.2172	0.4723	0.5381	0.074
H 	H 	0.2935	0.4876	0.5679	0.071
H 	H 	0.3072	0.5273	0.6063	0.028
H 	H 	0.3821	0.6154	0.8201	-0.028
H 	H 	0.3427	0.5337	0.7036	-0.017
H 	H 	0.4338	0.5957	0.7705	0.166
H 	H 	0.4481	0.6174	0.7997	0.165
H 	H 	0.3651	0.6501	0.8814	0.035
H 	H 	0.3649	0.6583	0.9222	0.06
H 	H 	0.3073	0.5823	0.8856	0.063
H 	H 	0.3026	0.5759	0.8435	0.035
H 	H 	0.3658	0.67	0.9974	0.014
H 	H 	0.3658	0.6626	0.9568	0.082
H 	H 	0.2999	0.5914	0.9173	0.087
H 	H 	0.3024	0.5976	0.9582	0.016
H 	H 	0.4342	0.6536	0.923	0.03
H 	H 	0.4342	0.6791	0.9619	0.074
H 	H 	0.4197	0.7256	0.9321	0.071
H 	H 	0.421	0.7009	0.8937	0.028
H 	H 	0.562	0.1799	0.7953	-0.028
H 	H 	0.6391	0.2964	0.8301	-0.017
H 	H 	0.6633	0.2295	0.8252	0.166
H 	H 	0.6484	0.2003	0.8177	0.165
H 	H 	0.4837	0.1186	0.7687	0.035
H 	H 	0.4427	0.0778	0.7361	0.06
H 	H 	0.4217	0.1144	0.6967	0.063
H 	H 	0.4591	0.1565	0.7324	0.035
H 	H 	0.3684	0.0026	0.6726	0.014
H 	H 	0.409	0.0432	0.7058	0.082
H 	H 	0.3826	0.0827	0.6741	0.087
H 	H 	0.3442	0.0418	0.6394	0.016
H 	H 	0.5112	0.077	0.7306	0.03
H 	H 	0.4723	0.0381	0.7172	0.074
H 	H 	0.4876	0.0679	0.7935	0.071
H 	H 	0.5273	0.1063	0.8072	0.028
H 	H 	0.6154	0.3201	0.8821	-0.028
H 	H 	0.5337	0.2036	0.8427	-0.017
H 	H 	0.5957	0.2705	0.9338	0.166
H 	H 	0.6174	0.2997	0.9481	0.165
H 	H 	0.6501	0.3814	0.8651	0.035
H 	H 	0.6583	0.4222	0.8649	0.06
H 	H 	0.5823	0.3856	0.8073	0.063
H 	H 	0.5759	0.3435	0.8026	0.035
H 	H 	0.67	0.4974	0.8658	0.014
H 	H 	0.6626	0.4568	0.8658	0.082
H 	H 	0.5914	0.4173	0.7999	0.087
H 	H 	0.5976	0.4582	0.8024	0.016
H 	H 	0.6536	0.423	0.9342	0.03
H 	H 	0.6791	0.4619	0.9342	0.074
H 	H 	0.7256	0.4321	0.9197	0.071
H 	H 	0.7009	0.3937	0.921	0.028
H 	H 	0.8846	0.7667	0.7047	-0.028
H 	H 	0.9663	0.809	0.6699	-0.017
H 	H 	0.9043	0.8381	0.6748	0.166
H 	H 	0.8826	0.8307	0.6823	0.165
H 	H 	0.8499	0.715	0.7313	0.035
H 	H 	0.8417	0.7066	0.7639	0.06
H 	H 	0.9177	0.725	0.8033	0.063
H 	H 	0.9241	0.7267	0.7676	0.035
H 	H 	0.83	0.6958	0.8274	0.014
H 	H 	0.8374	0.7032	0.7942	0.082
H 	H 	0.9086	0.7085	0.8259	0.087
H 	H 	0.9024	0.7048	0.8606	0.016
H 	H 	0.8464	0.7806	0.7694	0.03
H 	H 	0.8209	0.7551	0.7828	0.074
H 	H 	0.7744	0.6941	0.7065	0.071
H 	H 	0.7991	0.7201	0.6928	0.028
H 	H 	0.938	0.7333	0.6179	-0.028
H 	H 	0.8609	0.691	0.6573	-0.017
H 	H 	0.8367	0.6619	0.5662	0.166
H 	H 	0.8516	0.6693	0.5519	0.165
H 	H 	0.0163	0.785	0.6349	0.035
H 	H 	0.0573	0.7934	0.6351	0.06
H 	H 	0.0783	0.775	0.6927	0.063
H 	H 	0.0409	0.7733	0.6974	0.035
H 	H 	0.1316	0.8042	0.6342	0.014
H 	H 	0.091	0.7968	0.6342	0.082
H 	H 	0.1174	0.7915	0.7001	0.087
H 	H 	0.1558	0.7952	0.6976	0.016
H 	H 	0.9888	0.7194	0.5658	0.03
H 	H 	0.0277	0.7449	0.5658	0.074
H 	H 	0.0124	0.8059	0.5803	0.071
H 	H 	0.9727	0.7799	0.579	0.028
H 	H 	0.7333	0.1179	0.438	-0.028
H 	H 	0.691	0.1573	0.3609	-0.017
H 	H 	0.6619	0.0662	0.3367	0.166
H 	H 	0.6693	0.0519	0.3516	0.165
H 	H 	0.785	0.1349	0.5163	0.035
H 	H 	0.7934	0.1351	0.5573	0.06
H 	H 	0.775	0.1927	0.5783	0.063
H 	H 	0.7733	0.1974	0.5409	0.035
H 	H 	0.8042	0.1342	0.6316	0.014
H 	H 	0.7968	0.1342	0.591	0.082
H 	H 	0.7915	0.2001	0.6174	0.087
H 	H 	0.7952	0.1976	0.6558	0.016
H 	H 	0.7194	0.0658	0.4888	0.03
H 	H 	0.7449	0.0658	0.5277	0.074
H 	H 	0.8059	0.0803	0.5124	0.071
H 	H 	0.7799	0.079	0.4727	0.028
H 	H 	0.7667	0.2047	0.3846	-0.028
H 	H 	0.809	0.1699	0.4663	-0.017
H 	H 	0.8381	0.1748	0.4043	0.166
H 	H 	0.8307	0.1823	0.3826	0.165
H 	H 	0.715	0.2313	0.3499	0.035
H 	H 	0.7066	0.2639	0.3417	0.06
H 	H 	0.725	0.3033	0.4177	0.063
H 	H 	0.7267	0.2676	0.4241	0.035
H 	H 	0.6958	0.3274	0.33	0.014
H 	H 	0.7032	0.2942	0.3374	0.082
H 	H 	0.7085	0.3259	0.4086	0.087
H 	H 	0.7048	0.3606	0.4024	0.016
H 	H 	0.7806	0.2694	0.3464	0.03
H 	H 	0.7551	0.2828	0.3209	0.074
H 	H 	0.6941	0.2065	0.2744	0.071
H 	H 	0.7201	0.1928	0.2991	0.028
H 	H 	0.3201	0.3821	0.1154	-0.028
H 	H 	0.2036	0.3427	0.0337	-0.017
H 	H 	0.2705	0.4338	0.0957	0.166
H 	H 	0.2997	0.4481	0.1174	0.165
H 	H 	0.3814	0.3651	0.1501	0.035
H 	H 	0.4222	0.3649	0.1583	0.06
H 	H 	0.3856	0.3073	0.0823	0.063
H 	H 	0.3435	0.3026	0.0759	0.035
H 	H 	0.4974	0.3658	0.17	0.014
H 	H 	0.4568	0.3658	0.1626	0.082
H 	H 	0.4173	0.2999	0.0914	0.087
H 	H 	0.4582	0.3024	0.0976	0.016
H 	H 	0.423	0.4342	0.1536	0.03
H 	H 	0.4619	0.4342	0.1791	0.074
H 	H 	0.4321	0.4197	0.2256	0.071
H 	H 	0.3937	0.421	0.2009	0.028
H 	H 	0.1799	0.2953	0.062	-0.028
H 	H 	0.2964	0.3301	0.1391	-0.017
H 	H 	0.2295	0.3252	0.1633	0.166
H 	H 	0.2003	0.3177	0.1484	0.165
H 	H 	0.1186	0.2687	0.9837	0.035
H 	H 	0.0778	0.2361	0.9427	0.06
H 	H 	0.1144	0.1967	0.9217	0.063
H 	H 	0.1565	0.2324	0.9591	0.035
H 	H 	0.0026	0.1726	0.8684	0.014
H 	H 	0.0432	0.2058	0.909	0.082
H 	H 	0.0827	0.1741	0.8826	0.087
H 	H 	0.0418	0.1394	0.8442	0.016
H 	H 	0.077	0.2306	0.0112	0.03
H 	H 	0.0381	0.2172	0.9723	0.074
H 	H 	0.0679	0.2935	0.9876	0.071
H 	H 	0.1063	0.3072	0.0273	0.028
H 	H 	0.3846	0.7047	0.7667	-0.028
H 	H 	0.4663	0.6699	0.809	-0.017
H 	H 	0.4043	0.6748	0.8381	0.166
H 	H 	0.3826	0.6823	0.8307	0.165
H 	H 	0.3499	0.7313	0.715	0.035
H 	H 	0.3417	0.7639	0.7066	0.06
H 	H 	0.4177	0.8033	0.725	0.063
H 	H 	0.4241	0.7676	0.7267	0.035
H 	H 	0.33	0.8274	0.6958	0.014
H 	H 	0.3374	0.7942	0.7032	0.082
H 	H 	0.4086	0.8259	0.7085	0.087
H 	H 	0.4024	0.8606	0.7048	0.016
H 	H 	0.3464	0.7694	0.7806	0.03
H 	H 	0.3209	0.7828	0.7551	0.074
H 	H 	0.2744	0.7065	0.6941	0.071
H 	H 	0.2991	0.6928	0.7201	0.028
H 	H 	0.438	0.6179	0.7333	-0.028
H 	H 	0.3609	0.6573	0.691	-0.017
H 	H 	0.3367	0.5662	0.6619	0.166
H 	H 	0.3516	0.5519	0.6693	0.165
H 	H 	0.5163	0.6349	0.785	0.035
H 	H 	0.5573	0.6351	0.7934	0.06
H 	H 	0.5783	0.6927	0.775	0.063
H 	H 	0.5409	0.6974	0.7733	0.035
H 	H 	0.6316	0.6342	0.8042	0.014
H 	H 	0.591	0.6342	0.7968	0.082
H 	H 	0.6174	0.7001	0.7915	0.087
H 	H 	0.6558	0.6976	0.7952	0.016
H 	H 	0.4888	0.5658	0.7194	0.03
H 	H 	0.5277	0.5658	0.7449	0.074
H 	H 	0.5124	0.5803	0.8059	0.071
H 	H 	0.4727	0.579	0.7799	0.028
H 	H 	0.062	0.7953	0.1799	-0.028
H 	H 	0.1391	0.8301	0.2964	-0.017
H 	H 	0.1633	0.8252	0.2295	0.166
H 	H 	0.1484	0.8177	0.2003	0.165
H 	H 	0.9837	0.7687	0.1186	0.035
H 	H 	0.9427	0.7361	0.0778	0.06
H 	H 	0.9217	0.6967	0.1144	0.063
H 	H 	0.9591	0.7324	0.1565	0.035
H 	H 	0.8684	0.6726	0.0026	0.014
H 	H 	0.909	0.7058	0.0432	0.082
H 	H 	0.8826	0.6741	0.0827	0.087
H 	H 	0.8442	0.6394	0.0418	0.016
H 	H 	0.0112	0.7306	0.077	0.03
H 	H 	0.9723	0.7172	0.0381	0.074
H 	H 	0.9876	0.7935	0.0679	0.071
H 	H 	0.0273	0.8072	0.1063	0.028
H 	H 	0.1154	0.8821	0.3201	-0.028
H 	H 	0.0337	0.8427	0.2036	-0.017
H 	H 	0.0957	0.9338	0.2705	0.166
H 	H 	0.1174	0.9481	0.2997	0.165
H 	H 	0.1501	0.8651	0.3814	0.035
H 	H 	0.1583	0.8649	0.4222	0.06
H 	H 	0.0823	0.8073	0.3856	0.063
H 	H 	0.0759	0.8026	0.3435	0.035
H 	H 	0.17	0.8658	0.4974	0.014
H 	H 	0.1626	0.8658	0.4568	0.082
H 	H 	0.0914	0.7999	0.4173	0.087
H 	H 	0.0976	0.8024	0.4582	0.016
H 	H 	0.1536	0.9342	0.423	0.03
H 	H 	0.1791	0.9342	0.4619	0.074
H 	H 	0.2256	0.9197	0.4321	0.071
H 	H 	0.2009	0.921	0.3937	0.028
H 	H 	0.6799	0.062	0.2953	-0.028
H 	H 	0.7964	0.1391	0.3301	-0.017
H 	H 	0.7295	0.1633	0.3252	0.166
H 	H 	0.7003	0.1484	0.3177	0.165
H 	H 	0.6186	0.9837	0.2687	0.035
H 	H 	0.5778	0.9427	0.2361	0.06
H 	H 	0.6144	0.9217	0.1967	0.063
H 	H 	0.6565	0.9591	0.2324	0.035
H 	H 	0.5026	0.8684	0.1726	0.014
H 	H 	0.5432	0.909	0.2058	0.082
H 	H 	0.5827	0.8826	0.1741	0.087
H 	H 	0.5418	0.8442	0.1394	0.016
H 	H 	0.577	0.0112	0.2306	0.03
H 	H 	0.5381	0.9723	0.2172	0.074
H 	H 	0.5679	0.9876	0.2935	0.071
H 	H 	0.6063	0.0273	0.3072	0.028
H 	H 	0.8201	0.1154	0.3821	-0.028
H 	H 	0.7036	0.0337	0.3427	-0.017
H 	H 	0.7705	0.0957	0.4338	0.166
H 	H 	0.7997	0.1174	0.4481	0.165
H 	H 	0.8814	0.1501	0.3651	0.035
H 	H 	0.9222	0.1583	0.3649	0.06
H 	H 	0.8856	0.0823	0.3073	0.063
H 	H 	0.8435	0.0759	0.3026	0.035
H 	H 	0.9974	0.17	0.3658	0.014
H 	H 	0.9568	0.1626	0.3658	0.082
H 	H 	0.9173	0.0914	0.2999	0.087
H 	H 	0.9582	0.0976	0.3024	0.016
H 	H 	0.923	0.1536	0.4342	0.03
H 	H 	0.9619	0.1791	0.4342	0.074
H 	H 	0.9321	0.2256	0.4197	0.071
H 	H 	0.8937	0.2009	0.421	0.028
H 	H 	0.2667	0.3846	0.2047	-0.028
H 	H 	0.309	0.4663	0.1699	-0.017
H 	H 	0.3381	0.4043	0.1748	0.166
H 	H 	0.3307	0.3826	0.1823	0.165
H 	H 	0.215	0.3499	0.2313	0.035
H 	H 	0.2066	0.3417	0.2639	0.06
H 	H 	0.225	0.4177	0.3033	0.063
H 	H 	0.2267	0.4241	0.2676	0.035
H 	H 	0.1958	0.33	0.3274	0.014
H 	H 	0.2032	0.3374	0.2942	0.082
H 	H 	0.2085	0.4086	0.3259	0.087
H 	H 	0.2048	0.4024	0.3606	0.016
H 	H 	0.2806	0.3464	0.2694	0.03
H 	H 	0.2551	0.3209	0.2828	0.074
H 	H 	0.1941	0.2744	0.2065	0.071
H 	H 	0.2201	0.2991	0.1928	0.028
H 	H 	0.2333	0.438	0.1179	-0.028
H 	H 	0.191	0.3609	0.1573	-0.017
H 	H 	0.1619	0.3367	0.0662	0.166
H 	H 	0.1693	0.3516	0.0519	0.165
H 	H 	0.285	0.5163	0.1349	0.035
H 	H 	0.2934	0.5573	0.1351	0.06
H 	H 	0.275	0.5783	0.1927	0.063
H 	H 	0.2733	0.5409	0.1974	0.035
H 	H 	0.3042	0.6316	0.1342	0.014
H 	H 	0.2968	0.591	0.1342	0.082
H 	H 	0.2915	0.6174	0.2001	0.087
H 	H 	0.2952	0.6558	0.1976	0.016
H 	H 	0.2194	0.4888	0.0658	0.03
H 	H 	0.2449	0.5277	0.0658	0.074
H 	H 	0.3059	0.5124	0.0803	0.071
H 	H 	0.2799	0.4727	0.079	0.028
H 	H 	0.6179	0.2333	0.938	-0.028
H 	H 	0.6573	0.191	0.8609	-0.017
H 	H 	0.5662	0.1619	0.8367	0.166
H 	H 	0.5519	0.1693	0.8516	0.165
H 	H 	0.6349	0.285	0.0163	0.035
H 	H 	0.6351	0.2934	0.0573	0.06
H 	H 	0.6927	0.275	0.0783	0.063
H 	H 	0.6974	0.2733	0.0409	0.035
H 	H 	0.6342	0.3042	0.1316	0.014
H 	H 	0.6342	0.2968	0.091	0.082
H 	H 	0.7001	0.2915	0.1174	0.087
H 	H 	0.6976	0.2952	0.1558	0.016
H 	H 	0.5658	0.2194	0.9888	0.03
H 	H 	0.5658	0.2449	0.0277	0.074
H 	H 	0.5803	0.3059	0.0124	0.071
H 	H 	0.579	0.2799	0.9727	0.028
H 	H 	0.7047	0.2667	0.8846	-0.028
H 	H 	0.6699	0.309	0.9663	-0.017
H 	H 	0.6748	0.3381	0.9043	0.166
H 	H 	0.6823	0.3307	0.8826	0.165
H 	H 	0.7313	0.215	0.8499	0.035
H 	H 	0.7639	0.2066	0.8417	0.06
H 	H 	0.8033	0.225	0.9177	0.063
H 	H 	0.7676	0.2267	0.9241	0.035
H 	H 	0.8274	0.1958	0.83	0.014
H 	H 	0.7942	0.2032	0.8374	0.082
H 	H 	0.8259	0.2085	0.9086	0.087
H 	H 	0.8606	0.2048	0.9024	0.016
H 	H 	0.7694	0.2806	0.8464	0.03
H 	H 	0.7828	0.2551	0.8209	0.074
H 	H 	0.7065	0.1941	0.7744	0.071
H 	H 	0.6928	0.2201	0.7991	0.028
H 	H 	0.8821	0.8201	0.6154	-0.028
H 	H 	0.8427	0.7036	0.5337	-0.017
H 	H 	0.9338	0.7705	0.5957	0.166
H 	H 	0.9481	0.7997	0.6174	0.165
H 	H 	0.8651	0.8814	0.6501	0.035
H 	H 	0.8649	0.9222	0.6583	0.06
H 	H 	0.8073	0.8856	0.5823	0.063
H 	H 	0.8026	0.8435	0.5759	0.035
H 	H 	0.8658	0.9974	0.67	0.014
H 	H 	0.8658	0.9568	0.6626	0.082
H 	H 	0.7999	0.9173	0.5914	0.087
H 	H 	0.8024	0.9582	0.5976	0.016
H 	H 	0.9342	0.923	0.6536	0.03
H 	H 	0.9342	0.9619	0.6791	0.074
H 	H 	0.9197	0.9321	0.7256	0.071
H 	H 	0.921	0.8937	0.7009	0.028
H 	H 	0.7953	0.6799	0.562	-0.028
H 	H 	0.8301	0.7964	0.6391	-0.017
H 	H 	0.8252	0.7295	0.6633	0.166
H 	H 	0.8177	0.7003	0.6484	0.165
H 	H 	0.7687	0.6186	0.4837	0.035
H 	H 	0.7361	0.5778	0.4427	0.06
H 	H 	0.6967	0.6144	0.4217	0.063
H 	H 	0.7324	0.6565	0.4591	0.035
H 	H 	0.6726	0.5026	0.3684	0.014
H 	H 	0.7058	0.5432	0.409	0.082
H 	H 	0.6741	0.5827	0.3826	0.087
H 	H 	0.6394	0.5418	0.3442	0.016
H 	H 	0.7306	0.577	0.5112	0.03
H 	H 	0.7172	0.5381	0.4723	0.074
H 	H 	0.7935	0.5679	0.4876	0.071
H 	H 	0.8072	0.6063	0.5273	0.028
H 	H 	0.7953	0.1154	0.7333	-0.028
H 	H 	0.8301	0.0337	0.691	-0.017
H 	H 	0.8252	0.0957	0.6619	0.166
H 	H 	0.8177	0.1174	0.6693	0.165
H 	H 	0.7687	0.1501	0.785	0.035
H 	H 	0.7361	0.1583	0.7934	0.06
H 	H 	0.6967	0.0823	0.775	0.063
H 	H 	0.7324	0.0759	0.7733	0.035
H 	H 	0.6726	0.17	0.8042	0.014
H 	H 	0.7058	0.1626	0.7968	0.082
H 	H 	0.6741	0.0914	0.7915	0.087
H 	H 	0.6394	0.0976	0.7952	0.016
H 	H 	0.7306	0.1536	0.7194	0.03
H 	H 	0.7172	0.1791	0.7449	0.074
H 	H 	0.7935	0.2256	0.8059	0.071
H 	H 	0.8072	0.2009	0.7799	0.028
H 	H 	0.8821	0.062	0.7667	-0.028
H 	H 	0.8427	0.1391	0.809	-0.017
H 	H 	0.9338	0.1633	0.8381	0.166
H 	H 	0.9481	0.1484	0.8307	0.165
H 	H 	0.8651	0.9837	0.715	0.035
H 	H 	0.8649	0.9427	0.7066	0.06
H 	H 	0.8073	0.9217	0.725	0.063
H 	H 	0.8026	0.9591	0.7267	0.035
H 	H 	0.8658	0.8684	0.6958	0.014
H 	H 	0.8658	0.909	0.7032	0.082
H 	H 	0.7999	0.8826	0.7085	0.087
H 	H 	0.8024	0.8442	0.7048	0.016
H 	H 	0.9342	0.0112	0.7806	0.03
H 	H 	0.9342	0.9723	0.7551	0.074
H 	H 	0.9197	0.9876	0.6941	0.071
H 	H 	0.921	0.0273	0.7201	0.028
H 	H 	0.7047	0.438	0.3201	-0.028
H 	H 	0.6699	0.3609	0.2036	-0.017
H 	H 	0.6748	0.3367	0.2705	0.166
H 	H 	0.6823	0.3516	0.2997	0.165
H 	H 	0.7313	0.5163	0.3814	0.035
H 	H 	0.7639	0.5573	0.4222	0.06
H 	H 	0.8033	0.5783	0.3856	0.063
H 	H 	0.7676	0.5409	0.3435	0.035
H 	H 	0.8274	0.6316	0.4974	0.014
H 	H 	0.7942	0.591	0.4568	0.082
H 	H 	0.8259	0.6174	0.4173	0.087
H 	H 	0.8606	0.6558	0.4582	0.016
H 	H 	0.7694	0.4888	0.423	0.03
H 	H 	0.7828	0.5277	0.4619	0.074
H 	H 	0.7065	0.5124	0.4321	0.071
H 	H 	0.6928	0.4727	0.3937	0.028
H 	H 	0.6179	0.3846	0.1799	-0.028
H 	H 	0.6573	0.4663	0.2964	-0.017
H 	H 	0.5662	0.4043	0.2295	0.166
H 	H 	0.5519	0.3826	0.2003	0.165
H 	H 	0.6349	0.3499	0.1186	0.035
H 	H 	0.6351	0.3417	0.0778	0.06
H 	H 	0.6927	0.4177	0.1144	0.063
H 	H 	0.6974	0.4241	0.1565	0.035
H 	H 	0.6342	0.33	0.0026	0.014
H 	H 	0.6342	0.3374	0.0432	0.082
H 	H 	0.7001	0.4086	0.0827	0.087
H 	H 	0.6976	0.4024	0.0418	0.016
H 	H 	0.5658	0.3464	0.077	0.03
H 	H 	0.5658	0.3209	0.0381	0.074
H 	H 	0.5803	0.2744	0.0679	0.071
H 	H 	0.579	0.2991	0.1063	0.028
H 	H 	0.438	0.8201	0.2047	-0.028
H 	H 	0.3609	0.7036	0.1699	-0.017
H 	H 	0.3367	0.7705	0.1748	0.166
H 	H 	0.3516	0.7997	0.1823	0.165
H 	H 	0.5163	0.8814	0.2313	0.035
H 	H 	0.5573	0.9222	0.2639	0.06
H 	H 	0.5783	0.8856	0.3033	0.063
H 	H 	0.5409	0.8435	0.2676	0.035
H 	H 	0.6316	0.9974	0.3274	0.014
H 	H 	0.591	0.9568	0.2942	0.082
H 	H 	0.6174	0.9173	0.3259	0.087
H 	H 	0.6558	0.9582	0.3606	0.016
H 	H 	0.4888	0.923	0.2694	0.03
H 	H 	0.5277	0.9619	0.2828	0.074
H 	H 	0.5124	0.9321	0.2065	0.071
H 	H 	0.4727	0.8937	0.1928	0.028
H 	H 	0.3846	0.6799	0.1179	-0.028
H 	H 	0.4663	0.7964	0.1573	-0.017
H 	H 	0.4043	0.7295	0.0662	0.166
H 	H 	0.3826	0.7003	0.0519	0.165
H 	H 	0.3499	0.6186	0.1349	0.035
H 	H 	0.3417	0.5778	0.1351	0.06
H 	H 	0.4177	0.6144	0.1927	0.063
H 	H 	0.4241	0.6565	0.1974	0.035
H 	H 	0.33	0.5026	0.1342	0.014
H 	H 	0.3374	0.5432	0.1342	0.082
H 	H 	0.4086	0.5827	0.2001	0.087
H 	H 	0.4024	0.5418	0.1976	0.016
H 	H 	0.3464	0.577	0.0658	0.03
H 	H 	0.3209	0.5381	0.0658	0.074
H 	H 	0.2744	0.5679	0.0803	0.071
H 	H 	0.2991	0.6063	0.079	0.028
H 	H 	0.1154	0.2333	0.2953	-0.028
H 	H 	0.0337	0.191	0.3301	-0.017
H 	H 	0.0957	0.1619	0.3252	0.166
H 	H 	0.1174	0.1693	0.3177	0.165
H 	H 	0.1501	0.285	0.2687	0.035
H 	H 	0.1583	0.2934	0.2361	0.06
H 	H 	0.0823	0.275	0.1967	0.063
H 	H 	0.0759	0.2733	0.2324	0.035
H 	H 	0.17	0.3042	0.1726	0.014
H 	H 	0.1626	0.2968	0.2058	0.082
H 	H 	0.0914	0.2915	0.1741	0.087
H 	H 	0.0976	0.2952	0.1394	0.016
H 	H 	0.1536	0.2194	0.2306	0.03
H 	H 	0.1791	0.2449	0.2172	0.074
H 	H 	0.2256	0.3059	0.2935	0.071
H 	H 	0.2009	0.2799	0.3072	0.028
H 	H 	0.062	0.2667	0.3821	-0.028
H 	H 	0.1391	0.309	0.3427	-0.017
H 	H 	0.1633	0.3381	0.4338	0.166
H 	H 	0.1484	0.3307	0.4481	0.165
H 	H 	0.9837	0.215	0.3651	0.035
H 	H 	0.9427	0.2066	0.3649	0.06
H 	H 	0.9217	0.225	0.3073	0.063
H 	H 	0.9591	0.2267	0.3026	0.035
H 	H 	0.8684	0.1958	0.3658	0.014
H 	H 	0.909	0.2032	0.3658	0.082
H 	H 	0.8826	0.2085	0.2999	0.087
H 	H 	0.8442	0.2048	0.3024	0.016
H 	H 	0.0112	0.2806	0.4342	0.03
H 	H 	0.9723	0.2551	0.4342	0.074
H 	H 	0.9876	0.1941	0.4197	0.071
H 	H 	0.0273	0.2201	0.421	0.028
H 	H 	0.2667	0.8821	0.562	-0.028
H 	H 	0.309	0.8427	0.6391	-0.017
H 	H 	0.3381	0.9338	0.6633	0.166
H 	H 	0.3307	0.9481	0.6484	0.165
H 	H 	0.215	0.8651	0.4837	0.035
H 	H 	0.2066	0.8649	0.4427	0.06
H 	H 	0.225	0.8073	0.4217	0.063
H 	H 	0.2267	0.8026	0.4591	0.035
H 	H 	0.1958	0.8658	0.3684	0.014
H 	H 	0.2032	0.8658	0.409	0.082
H 	H 	0.2085	0.7999	0.3826	0.087
H 	H 	0.2048	0.8024	0.3442	0.016
H 	H 	0.2806	0.9342	0.5112	0.03
H 	H 	0.2551	0.9342	0.4723	0.074
H 	H 	0.1941	0.9197	0.4876	0.071
H 	H 	0.2201	0.921	0.5273	0.028
H 	H 	0.2333	0.7953	0.6154	-0.028
H 	H 	0.191	0.8301	0.5337	-0.017
H 	H 	0.1619	0.8252	0.5957	0.166
H 	H 	0.1693	0.8177	0.6174	0.165
H 	H 	0.285	0.7687	0.6501	0.035
H 	H 	0.2934	0.7361	0.6583	0.06
H 	H 	0.275	0.6967	0.5823	0.063
H 	H 	0.2733	0.7324	0.5759	0.035
H 	H 	0.3042	0.6726	0.67	0.014
H 	H 	0.2968	0.7058	0.6626	0.082
H 	H 	0.2915	0.6741	0.5914	0.087
H 	H 	0.2952	0.6394	0.5976	0.016
H 	H 	0.2194	0.7306	0.6536	0.03
H 	H 	0.2449	0.7172	0.6791	0.074
H 	H 	0.3059	0.7935	0.7256	0.071
H 	H 	0.2799	0.8072	0.7009	0.028
H 	H 	0.6799	0.6179	0.8846	-0.028
H 	H 	0.7964	0.6573	0.9663	-0.017
H 	H 	0.7295	0.5662	0.9043	0.166
H 	H 	0.7003	0.5519	0.8826	0.165
H 	H 	0.6186	0.6349	0.8499	0.035
H 	H 	0.5778	0.6351	0.8417	0.06
H 	H 	0.6144	0.6927	0.9177	0.063
H 	H 	0.6565	0.6974	0.9241	0.035
H 	H 	0.5026	0.6342	0.83	0.014
H 	H 	0.5432	0.6342	0.8374	0.082
H 	H 	0.5827	0.7001	0.9086	0.087
H 	H 	0.5418	0.6976	0.9024	0.016
H 	H 	0.577	0.5658	0.8464	0.03
H 	H 	0.5381	0.5658	0.8209	0.074
H 	H 	0.5679	0.5803	0.7744	0.071
H 	H 	0.6063	0.579	0.7991	0.028
H 	H 	0.8201	0.7047	0.938	-0.028
H 	H 	0.7036	0.6699	0.8609	-0.017
H 	H 	0.7705	0.6748	0.8367	0.166
H 	H 	0.7997	0.6823	0.8516	0.165
H 	H 	0.8814	0.7313	0.0163	0.035
H 	H 	0.9222	0.7639	0.0573	0.06
H 	H 	0.8856	0.8033	0.0783	0.063
H 	H 	0.8435	0.7676	0.0409	0.035
H 	H 	0.9974	0.8274	0.1316	0.014
H 	H 	0.9568	0.7942	0.091	0.082
H 	H 	0.9173	0.8259	0.1174	0.087
H 	H 	0.9582	0.8606	0.1558	0.016
H 	H 	0.923	0.7694	0.9888	0.03
H 	H 	0.9619	0.7828	0.0277	0.074
H 	H 	0.9321	0.7065	0.0124	0.071
H 	H 	0.8937	0.6928	0.9727	0.028
C 	C 	0.60556	0.30121	0.22343	0.092
C 	C 	0.57282	0.31155	0.21237	0.107
C 	C 	0.57857	0.31808	0.19315	-0.034
C 	C 	0.59839	0.31473	0.19	0.12
C 	C 	0.54747	0.32558	0.19473	0.079
C 	C 	0.6072	0.2754	0.2736	0.369
C 	C 	0.61214	0.25367	0.27801	-0.112
C 	C 	0.63627	0.25464	0.28403	0.035
C 	C 	0.64118	0.23471	0.28887	-0.093
C 	C 	0.62152	0.21369	0.28683	0.026
C 	C 	0.5971	0.2123	0.279	-0.095
C 	C 	0.5925	0.233	0.2763	0.037
C 	C 	0.6392	0.131	0.3058	0.398
C 	C 	0.63489	0.15294	0.30119	-0.165
C 	C 	0.65349	0.17216	0.30113	0.096
C 	C 	0.64884	0.19214	0.2963	-0.155
C 	C 	0.62554	0.1924	0.29114	0.09
C 	C 	0.6071	0.1736	0.2927	-0.158
C 	C 	0.6116	0.1535	0.2963	0.094
C 	C 	0.6591	0.2795	0.23	0.383
C 	C 	0.67483	0.27008	0.24703	-0.122
C 	C 	0.66841	0.24359	0.23692	0.055
C 	C 	0.68358	0.23548	0.25226	-0.122
C 	C 	0.7047	0.25419	0.27785	0.052
C 	C 	0.71111	0.28069	0.28822	-0.123
C 	C 	0.6962	0.2889	0.2727	0.053
C 	C 	0.57778	0.38213	0.27657	0.092
C 	C 	0.59918	0.36045	0.28763	0.107
C 	C 	0.62493	0.38542	0.30685	-0.034
C 	C 	0.62473	0.40839	0.31	0.12
C 	C 	0.63085	0.35274	0.30527	0.079
C 	C 	0.5018	0.3336	0.2264	0.369
C 	C 	0.47566	0.33413	0.22199	-0.112
C 	C 	0.47061	0.35224	0.21597	0.035
C 	C 	0.44584	0.35231	0.21113	-0.093
C 	C 	0.42686	0.33469	0.21317	0.026
C 	C 	0.4333	0.3181	0.221	-0.095
C 	C 	0.4567	0.3162	0.2237	0.037
C 	C 	0.3252	0.3334	0.1942	0.398
C 	C 	0.35175	0.3337	0.19881	-0.165
C 	C 	0.37103	0.35236	0.19887	0.096
C 	C 	0.39584	0.35254	0.2037	-0.155
C 	C 	0.40126	0.3344	0.20886	0.09
C 	C 	0.3809	0.3144	0.2073	-0.158
C 	C 	0.3572	0.3153	0.2037	0.094
C 	C 	0.5495	0.4291	0.27	0.383
C 	C 	0.52305	0.4278	0.25297	-0.122
C 	C 	0.50667	0.43149	0.26308	0.055
C 	C 	0.48322	0.43132	0.24774	-0.122
C 	C 	0.47634	0.42685	0.22215	0.052
C 	C 	0.49247	0.42289	0.21178	-0.123
C 	C 	0.5162	0.4235	0.2273	0.053
C 	C 	0.92222	0.19879	0.80435	0.092
C 	C 	0.90082	0.18845	0.76127	0.107
C 	C 	0.87507	0.18192	0.76049	-0.034
C 	C 	0.87527	0.18527	0.78366	0.12
C 	C 	0.86915	0.17442	0.72189	0.079
C 	C 	0.9982	0.2246	0.8318	0.369
C 	C 	0.02434	0.24633	0.85847	-0.112
C 	C 	0.02939	0.24536	0.88163	0.035
C 	C 	0.05416	0.26529	0.90647	-0.093
C 	C 	0.07314	0.28631	0.90783	0.026
C 	C 	0.0667	0.2877	0.8848	-0.095
C 	C 	0.0433	0.267	0.8595	0.037
C 	C 	0.1748	0.369	0.0082	0.398
C 	C 	0.14825	0.34706	0.98195	-0.165
C 	C 	0.12897	0.32784	0.98133	0.096
C 	C 	0.10416	0.30786	0.9567	-0.155
C 	C 	0.09874	0.3076	0.93314	0.09
C 	C 	0.1191	0.3264	0.9335	-0.158
C 	C 	0.1428	0.3465	0.9581	0.094
C 	C 	0.9505	0.2205	0.8796	0.383
C 	C 	0.97695	0.22992	0.90475	-0.122
C 	C 	0.99333	0.25641	0.92482	0.055
C 	C 	0.01678	0.26452	0.9481	-0.122
C 	C 	0.02366	0.24581	0.95051	0.052
C 	C 	0.00753	0.21931	0.93042	-0.123
C 	C 	0.9838	0.2111	0.9073	0.053
C 	C 	0.89444	0.11787	0.69565	0.092
C 	C 	0.92718	0.13955	0.73873	0.107
C 	C 	0.92143	0.11458	0.73951	-0.034
C 	C 	0.90161	0.09161	0.71634	0.12
C 	C 	0.95253	0.14726	0.77811	0.079
C 	C 	0.8928	0.1664	0.6682	0.369
C 	C 	0.88786	0.16587	0.64153	-0.112
C 	C 	0.86373	0.14776	0.61837	0.035
C 	C 	0.85882	0.14769	0.59353	-0.093
C 	C 	0.87848	0.16531	0.59217	0.026
C 	C 	0.9029	0.1819	0.6152	-0.095
C 	C 	0.9075	0.1838	0.6405	0.037
C 	C 	0.8608	0.1666	0.4918	0.398
C 	C 	0.86511	0.1663	0.51805	-0.165
C 	C 	0.84651	0.14764	0.51867	0.096
C 	C 	0.85116	0.14746	0.5433	-0.155
C 	C 	0.87446	0.1656	0.56686	0.09
C 	C 	0.8929	0.1856	0.5665	-0.158
C 	C 	0.8884	0.1847	0.5419	0.094
C 	C 	0.8409	0.0709	0.6204	0.383
C 	C 	0.82517	0.0722	0.59525	-0.122
C 	C 	0.83159	0.06851	0.57518	0.055
C 	C 	0.81642	0.06868	0.5519	-0.122
C 	C 	0.7953	0.07315	0.54949	0.052
C 	C 	0.78889	0.07711	0.56958	-0.123
C 	C 	0.8038	0.0765	0.5927	0.053
C 	C 	0.30435	0.92222	0.69879	0.092
C 	C 	0.26127	0.90082	0.68845	0.107
C 	C 	0.26049	0.87507	0.68192	-0.034
C 	C 	0.28366	0.87527	0.68527	0.12
C 	C 	0.22189	0.86915	0.67442	0.079
C 	C 	0.3318	0.9982	0.7246	0.369
C 	C 	0.35847	0.02434	0.74633	-0.112
C 	C 	0.38163	0.02939	0.74536	0.035
C 	C 	0.40647	0.05416	0.76529	-0.093
C 	C 	0.40783	0.07314	0.78631	0.026
C 	C 	0.3848	0.0667	0.7877	-0.095
C 	C 	0.3595	0.0433	0.767	0.037
C 	C 	0.5082	0.1748	0.869	0.398
C 	C 	0.48195	0.14825	0.84706	-0.165
C 	C 	0.48133	0.12897	0.82784	0.096
C 	C 	0.4567	0.10416	0.80786	-0.155
C 	C 	0.43314	0.09874	0.8076	0.09
C 	C 	0.4335	0.1191	0.8264	-0.158
C 	C 	0.4581	0.1428	0.8465	0.094
C 	C 	0.3796	0.9505	0.7205	0.383
C 	C 	0.40475	0.97695	0.72992	-0.122
C 	C 	0.42482	0.99333	0.75641	0.055
C 	C 	0.4481	0.01678	0.76452	-0.122
C 	C 	0.45051	0.02366	0.74581	0.052
C 	C 	0.43042	0.00753	0.71931	-0.123
C 	C 	0.4073	0.9838	0.7111	0.053
C 	C 	0.19565	0.89444	0.61787	0.092
C 	C 	0.23873	0.92718	0.63955	0.107
C 	C 	0.23951	0.92143	0.61458	-0.034
C 	C 	0.21634	0.90161	0.59161	0.12
C 	C 	0.27811	0.95253	0.64726	0.079
C 	C 	0.1682	0.8928	0.6664	0.369
C 	C 	0.14153	0.88786	0.66587	-0.112
C 	C 	0.11837	0.86373	0.64776	0.035
C 	C 	0.09353	0.85882	0.64769	-0.093
C 	C 	0.09217	0.87848	0.66531	0.026
C 	C 	0.1152	0.9029	0.6819	-0.095
C 	C 	0.1405	0.9075	0.6838	0.037
C 	C 	0.9918	0.8608	0.6666	0.398
C 	C 	0.01805	0.86511	0.6663	-0.165
C 	C 	0.01867	0.84651	0.64764	0.096
C 	C 	0.0433	0.85116	0.64746	-0.155
C 	C 	0.06686	0.87446	0.6656	0.09
C 	C 	0.0665	0.8929	0.6856	-0.158
C 	C 	0.0419	0.8884	0.6847	0.094
C 	C 	0.1204	0.8409	0.5709	0.383
C 	C 	0.09525	0.82517	0.5722	-0.122
C 	C 	0.07518	0.83159	0.56851	0.055
C 	C 	0.0519	0.81642	0.56868	-0.122
C 	C 	0.04949	0.7953	0.57315	0.052
C 	C 	0.06958	0.78889	0.57711	-0.123
C 	C 	0.0927	0.8038	0.5765	0.053
C 	C 	0.72343	0.60556	0.80121	0.092
C 	C 	0.71237	0.57282	0.81155	0.107
C 	C 	0.69315	0.57857	0.81808	-0.034
C 	C 	0.69	0.59839	0.81473	0.12
C 	C 	0.69473	0.54747	0.82558	0.079
C 	C 	0.7736	0.6072	0.7754	0.369
C 	C 	0.77801	0.61214	0.75367	-0.112
C 	C 	0.78403	0.63627	0.75464	0.035
C 	C 	0.78887	0.64118	0.73471	-0.093
C 	C 	0.78683	0.62152	0.71369	0.026
C 	C 	0.779	0.5971	0.7123	-0.095
C 	C 	0.7763	0.5925	0.733	0.037
C 	C 	0.8058	0.6392	0.631	0.398
C 	C 	0.80119	0.63489	0.65294	-0.165
C 	C 	0.80113	0.65349	0.67216	0.096
C 	C 	0.7963	0.64884	0.69214	-0.155
C 	C 	0.79114	0.62554	0.6924	0.09
C 	C 	0.7927	0.6071	0.6736	-0.158
C 	C 	0.7963	0.6116	0.6535	0.094
C 	C 	0.73	0.6591	0.7795	0.383
C 	C 	0.74703	0.67483	0.77008	-0.122
C 	C 	0.73692	0.66841	0.74359	0.055
C 	C 	0.75226	0.68358	0.73548	-0.122
C 	C 	0.77785	0.7047	0.75419	0.052
C 	C 	0.78822	0.71111	0.78069	-0.123
C 	C 	0.7727	0.6962	0.7889	0.053
C 	C 	0.77657	0.57778	0.88213	0.092
C 	C 	0.78763	0.59918	0.86045	0.107
C 	C 	0.80685	0.62493	0.88542	-0.034
C 	C 	0.81	0.62473	0.90839	0.12
C 	C 	0.80527	0.63085	0.85274	0.079
C 	C 	0.7264	0.5018	0.8336	0.369
C 	C 	0.72199	0.47566	0.83413	-0.112
C 	C 	0.71597	0.47061	0.85224	0.035
C 	C 	0.71113	0.44584	0.85231	-0.093
C 	C 	0.71317	0.42686	0.83469	0.026
C 	C 	0.721	0.4333	0.8181	-0.095
C 	C 	0.7237	0.4567	0.8162	0.037
C 	C 	0.6942	0.3252	0.8334	0.398
C 	C 	0.69881	0.35175	0.8337	-0.165
C 	C 	0.69887	0.37103	0.85236	0.096
C 	C 	0.7037	0.39584	0.85254	-0.155
C 	C 	0.70886	0.40126	0.8344	0.09
C 	C 	0.7073	0.3809	0.8144	-0.158
C 	C 	0.7037	0.3572	0.8153	0.094
C 	C 	0.77	0.5495	0.9291	0.383
C 	C 	0.75297	0.52305	0.9278	-0.122
C 	C 	0.76308	0.50667	0.93149	0.055
C 	C 	0.74774	0.48322	0.93132	-0.122
C 	C 	0.72215	0.47634	0.92685	0.052
C 	C 	0.71178	0.49247	0.92289	-0.123
C 	C 	0.7273	0.5162	0.9235	0.053
C 	C 	0.38213	0.77657	0.07778	0.092
C 	C 	0.36045	0.78763	0.09918	0.107
C 	C 	0.38542	0.80685	0.12493	-0.034
C 	C 	0.40839	0.81	0.12473	0.12
C 	C 	0.35274	0.80527	0.13085	0.079
C 	C 	0.3336	0.7264	0.0018	0.369
C 	C 	0.33413	0.72199	0.97566	-0.112
C 	C 	0.35224	0.71597	0.97061	0.035
C 	C 	0.35231	0.71113	0.94584	-0.093
C 	C 	0.33469	0.71317	0.92686	0.026
C 	C 	0.3181	0.721	0.9333	-0.095
C 	C 	0.3162	0.7237	0.9567	0.037
C 	C 	0.3334	0.6942	0.8252	0.398
C 	C 	0.3337	0.69881	0.85175	-0.165
C 	C 	0.35236	0.69887	0.87103	0.096
C 	C 	0.35254	0.7037	0.89584	-0.155
C 	C 	0.3344	0.70886	0.90126	0.09
C 	C 	0.3144	0.7073	0.8809	-0.158
C 	C 	0.3153	0.7037	0.8572	0.094
C 	C 	0.4291	0.77	0.0495	0.383
C 	C 	0.4278	0.75297	0.02305	-0.122
C 	C 	0.43149	0.76308	0.00667	0.055
C 	C 	0.43132	0.74774	0.98322	-0.122
C 	C 	0.42685	0.72215	0.97634	0.052
C 	C 	0.42289	0.71178	0.99247	-0.123
C 	C 	0.4235	0.7273	0.0162	0.053
C 	C 	0.30121	0.72343	0.10556	0.092
C 	C 	0.31155	0.71237	0.07282	0.107
C 	C 	0.31808	0.69315	0.07857	-0.034
C 	C 	0.31473	0.69	0.09839	0.12
C 	C 	0.32558	0.69473	0.04747	0.079
C 	C 	0.2754	0.7736	0.1072	0.369
C 	C 	0.25367	0.77801	0.11214	-0.112
C 	C 	0.25464	0.78403	0.13627	0.035
C 	C 	0.23471	0.78887	0.14118	-0.093
C 	C 	0.21369	0.78683	0.12152	0.026
C 	C 	0.2123	0.779	0.0971	-0.095
C 	C 	0.233	0.7763	0.0925	0.037
C 	C 	0.131	0.8058	0.1392	0.398
C 	C 	0.15294	0.80119	0.13489	-0.165
C 	C 	0.17216	0.80113	0.15349	0.096
C 	C 	0.19214	0.7963	0.14884	-0.155
C 	C 	0.1924	0.79114	0.12554	0.09
C 	C 	0.1736	0.7927	0.1071	-0.158
C 	C 	0.1535	0.7963	0.1116	0.094
C 	C 	0.2795	0.73	0.1591	0.383
C 	C 	0.27008	0.74703	0.17483	-0.122
C 	C 	0.24359	0.73692	0.16841	0.055
C 	C 	0.23548	0.75226	0.18358	-0.122
C 	C 	0.25419	0.77785	0.2047	0.052
C 	C 	0.28069	0.78822	0.21111	-0.123
C 	C 	0.2889	0.7727	0.1962	0.053
C 	C 	0.11787	0.19565	0.39444	0.092
C 	C 	0.13955	0.23873	0.42718	0.107
C 	C 	0.11458	0.23951	0.42143	-0.034
C 	C 	0.09161	0.21634	0.40161	0.12
C 	C 	0.14726	0.27811	0.45253	0.079
C 	C 	0.1664	0.1682	0.3928	0.369
C 	C 	0.16587	0.14153	0.38786	-0.112
C 	C 	0.14776	0.11837	0.36373	0.035
C 	C 	0.14769	0.09353	0.35882	-0.093
C 	C 	0.16531	0.09217	0.37848	0.026
C 	C 	0.1819	0.1152	0.4029	-0.095
C 	C 	0.1838	0.1405	0.4075	0.037
C 	C 	0.1666	0.9918	0.3608	0.398
C 	C 	0.1663	0.01805	0.36511	-0.165
C 	C 	0.14764	0.01867	0.34651	0.096
C 	C 	0.14746	0.0433	0.35116	-0.155
C 	C 	0.1656	0.06686	0.37446	0.09
C 	C 	0.1856	0.0665	0.3929	-0.158
C 	C 	0.1847	0.0419	0.3884	0.094
C 	C 	0.0709	0.1204	0.3409	0.383
C 	C 	0.0722	0.09525	0.32517	-0.122
C 	C 	0.06851	0.07518	0.33159	0.055
C 	C 	0.06868	0.0519	0.31642	-0.122
C 	C 	0.07315	0.04949	0.2953	0.052
C 	C 	0.07711	0.06958	0.28889	-0.123
C 	C 	0.0765	0.0927	0.3038	0.053
C 	C 	0.19879	0.30435	0.42222	0.092
C 	C 	0.18845	0.26127	0.40082	0.107
C 	C 	0.18192	0.26049	0.37507	-0.034
C 	C 	0.18527	0.28366	0.37527	0.12
C 	C 	0.17442	0.22189	0.36915	0.079
C 	C 	0.2246	0.3318	0.4982	0.369
C 	C 	0.24633	0.35847	0.52434	-0.112
C 	C 	0.24536	0.38163	0.52939	0.035
C 	C 	0.26529	0.40647	0.55416	-0.093
C 	C 	0.28631	0.40783	0.57314	0.026
C 	C 	0.2877	0.3848	0.5667	-0.095
C 	C 	0.267	0.3595	0.5433	0.037
C 	C 	0.369	0.5082	0.6748	0.398
C 	C 	0.34706	0.48195	0.64825	-0.165
C 	C 	0.32784	0.48133	0.62897	0.096
C 	C 	0.30786	0.4567	0.60416	-0.155
C 	C 	0.3076	0.43314	0.59874	0.09
C 	C 	0.3264	0.4335	0.6191	-0.158
C 	C 	0.3465	0.4581	0.6428	0.094
C 	C 	0.2205	0.3796	0.4505	0.383
C 	C 	0.22992	0.40475	0.47695	-0.122
C 	C 	0.25641	0.42482	0.49333	0.055
C 	C 	0.26452	0.4481	0.51678	-0.122
C 	C 	0.24581	0.45051	0.52366	0.052
C 	C 	0.21931	0.43042	0.50753	-0.123
C 	C 	0.2111	0.4073	0.4838	0.053
C 	C 	0.19879	0.89444	0.27657	0.092
C 	C 	0.18845	0.92718	0.28763	0.107
C 	C 	0.18192	0.92143	0.30685	-0.034
C 	C 	0.18527	0.90161	0.31	0.12
C 	C 	0.17442	0.95253	0.30527	0.079
C 	C 	0.2246	0.8928	0.2264	0.369
C 	C 	0.24633	0.88786	0.22199	-0.112
C 	C 	0.24536	0.86373	0.21597	0.035
C 	C 	0.26529	0.85882	0.21113	-0.093
C 	C 	0.28631	0.87848	0.21317	0.026
C 	C 	0.2877	0.9029	0.221	-0.095
C 	C 	0.267	0.9075	0.2237	0.037
C 	C 	0.369	0.8608	0.1942	0.398
C 	C 	0.34706	0.86511	0.19881	-0.165
C 	C 	0.32784	0.84651	0.19887	0.096
C 	C 	0.30786	0.85116	0.2037	-0.155
C 	C 	0.3076	0.87446	0.20886	0.09
C 	C 	0.3264	0.8929	0.2073	-0.158
C 	C 	0.3465	0.8884	0.2037	0.094
C 	C 	0.2205	0.8409	0.27	0.383
C 	C 	0.22992	0.82517	0.25297	-0.122
C 	C 	0.25641	0.83159	0.26308	0.055
C 	C 	0.26452	0.81642	0.24774	-0.122
C 	C 	0.24581	0.7953	0.22215	0.052
C 	C 	0.21931	0.78889	0.21178	-0.123
C 	C 	0.2111	0.8038	0.2273	0.053
C 	C 	0.11787	0.92222	0.22343	0.092
C 	C 	0.13955	0.90082	0.21237	0.107
C 	C 	0.11458	0.87507	0.19315	-0.034
C 	C 	0.09161	0.87527	0.19	0.12
C 	C 	0.14726	0.86915	0.19473	0.079
C 	C 	0.1664	0.9982	0.2736	0.369
C 	C 	0.16587	0.02434	0.27801	-0.112
C 	C 	0.14776	0.02939	0.28403	0.035
C 	C 	0.14769	0.05416	0.28887	-0.093
C 	C 	0.16531	0.07314	0.28683	0.026
C 	C 	0.1819	0.0667	0.279	-0.095
C 	C 	0.1838	0.0433	0.2763	0.037
C 	C 	0.1666	0.1748	0.3058	0.398
C 	C 	0.1663	0.14825	0.30119	-0.165
C 	C 	0.14764	0.12897	0.30113	0.096
C 	C 	0.14746	0.10416	0.2963	-0.155
C 	C 	0.1656	0.09874	0.29114	0.09
C 	C 	0.1856	0.1191	0.2927	-0.158
C 	C 	0.1847	0.1428	0.2963	0.094
C 	C 	0.0709	0.9505	0.23	0.383
C 	C 	0.0722	0.97695	0.24703	-0.122
C 	C 	0.06851	0.99333	0.23692	0.055
C 	C 	0.06868	0.01678	0.25226	-0.122
C 	C 	0.07315	0.02366	0.27785	0.052
C 	C 	0.07711	0.00753	0.28822	-0.123
C 	C 	0.0765	0.9838	0.2727	0.053
C 	C 	0.30121	0.57778	0.69565	0.092
C 	C 	0.31155	0.59918	0.73873	0.107
C 	C 	0.31808	0.62493	0.73951	-0.034
C 	C 	0.31473	0.62473	0.71634	0.12
C 	C 	0.32558	0.63085	0.77811	0.079
C 	C 	0.2754	0.5018	0.6682	0.369
C 	C 	0.25367	0.47566	0.64153	-0.112
C 	C 	0.25464	0.47061	0.61837	0.035
C 	C 	0.23471	0.44584	0.59353	-0.093
C 	C 	0.21369	0.42686	0.59217	0.026
C 	C 	0.2123	0.4333	0.6152	-0.095
C 	C 	0.233	0.4567	0.6405	0.037
C 	C 	0.131	0.3252	0.4918	0.398
C 	C 	0.15294	0.35175	0.51805	-0.165
C 	C 	0.17216	0.37103	0.51867	0.096
C 	C 	0.19214	0.39584	0.5433	-0.155
C 	C 	0.1924	0.40126	0.56686	0.09
C 	C 	0.1736	0.3809	0.5665	-0.158
C 	C 	0.1535	0.3572	0.5419	0.094
C 	C 	0.2795	0.5495	0.6204	0.383
C 	C 	0.27008	0.52305	0.59525	-0.122
C 	C 	0.24359	0.50667	0.57518	0.055
C 	C 	0.23548	0.48322	0.5519	-0.122
C 	C 	0.25419	0.47634	0.54949	0.052
C 	C 	0.28069	0.49247	0.56958	-0.123
C 	C 	0.2889	0.5162	0.5927	0.053
C 	C 	0.38213	0.60556	0.80435	0.092
C 	C 	0.36045	0.57282	0.76127	0.107
C 	C 	0.38542	0.57857	0.76049	-0.034
C 	C 	0.40839	0.59839	0.78366	0.12
C 	C 	0.35274	0.54747	0.72189	0.079
C 	C 	0.3336	0.6072	0.8318	0.369
C 	C 	0.33413	0.61214	0.85847	-0.112
C 	C 	0.35224	0.63627	0.88163	0.035
C 	C 	0.35231	0.64118	0.90647	-0.093
C 	C 	0.33469	0.62152	0.90783	0.026
C 	C 	0.3181	0.5971	0.8848	-0.095
C 	C 	0.3162	0.5925	0.8595	0.037
C 	C 	0.3334	0.6392	0.0082	0.398
C 	C 	0.3337	0.63489	0.98195	-0.165
C 	C 	0.35236	0.65349	0.98133	0.096
C 	C 	0.35254	0.64884	0.9567	-0.155
C 	C 	0.3344	0.62554	0.93314	0.09
C 	C 	0.3144	0.6071	0.9335	-0.158
C 	C 	0.3153	0.6116	0.9581	0.094
C 	C 	0.4291	0.6591	0.8796	0.383
C 	C 	0.4278	0.67483	0.90475	-0.122
C 	C 	0.43149	0.66841	0.92482	0.055
C 	C 	0.43132	0.68358	0.9481	-0.122
C 	C 	0.42685	0.7047	0.95051	0.052
C 	C 	0.42289	0.71111	0.93042	-0.123
C 	C 	0.4235	0.6962	0.9073	0.053
C 	C 	0.57778	0.19565	0.80121	0.092
C 	C 	0.59918	0.23873	0.81155	0.107
C 	C 	0.62493	0.23951	0.81808	-0.034
C 	C 	0.62473	0.21634	0.81473	0.12
C 	C 	0.63085	0.27811	0.82558	0.079
C 	C 	0.5018	0.1682	0.7754	0.369
C 	C 	0.47566	0.14153	0.75367	-0.112
C 	C 	0.47061	0.11837	0.75464	0.035
C 	C 	0.44584	0.09353	0.73471	-0.093
C 	C 	0.42686	0.09217	0.71369	0.026
C 	C 	0.4333	0.1152	0.7123	-0.095
C 	C 	0.4567	0.1405	0.733	0.037
C 	C 	0.3252	0.9918	0.631	0.398
C 	C 	0.35175	0.01805	0.65294	-0.165
C 	C 	0.37103	0.01867	0.67216	0.096
C 	C 	0.39584	0.0433	0.69214	-0.155
C 	C 	0.40126	0.06686	0.6924	0.09
C 	C 	0.3809	0.0665	0.6736	-0.158
C 	C 	0.3572	0.0419	0.6535	0.094
C 	C 	0.5495	0.1204	0.7795	0.383
C 	C 	0.52305	0.09525	0.77008	-0.122
C 	C 	0.50667	0.07518	0.74359	0.055
C 	C 	0.48322	0.0519	0.73548	-0.122
C 	C 	0.47634	0.04949	0.75419	0.052
C 	C 	0.49247	0.06958	0.78069	-0.123
C 	C 	0.5162	0.0927	0.7889	0.053
C 	C 	0.60556	0.30435	0.88213	0.092
C 	C 	0.57282	0.26127	0.86045	0.107
C 	C 	0.57857	0.26049	0.88542	-0.034
C 	C 	0.59839	0.28366	0.90839	0.12
C 	C 	0.54747	0.22189	0.85274	0.079
C 	C 	0.6072	0.3318	0.8336	0.369
C 	C 	0.61214	0.35847	0.83413	-0.112
C 	C 	0.63627	0.38163	0.85224	0.035
C 	C 	0.64118	0.40647	0.85231	-0.093
C 	C 	0.62152	0.40783	0.83469	0.026
C 	C 	0.5971	0.3848	0.8181	-0.095
C 	C 	0.5925	0.3595	0.8162	0.037
C 	C 	0.6392	0.5082	0.8334	0.398
C 	C 	0.63489	0.48195	0.8337	-0.165
C 	C 	0.65349	0.48133	0.85236	0.096
C 	C 	0.64884	0.4567	0.85254	-0.155
C 	C 	0.62554	0.43314	0.8344	0.09
C 	C 	0.6071	0.4335	0.8144	-0.158
C 	C 	0.6116	0.4581	0.8153	0.094
C 	C 	0.6591	0.3796	0.9291	0.383
C 	C 	0.67483	0.40475	0.9278	-0.122
C 	C 	0.66841	0.42482	0.93149	0.055
C 	C 	0.68358	0.4481	0.93132	-0.122
C 	C 	0.7047	0.45051	0.92685	0.052
C 	C 	0.71111	0.43042	0.92289	-0.123
C 	C 	0.6962	0.4073	0.9235	0.053
C 	C 	0.89444	0.77657	0.69879	0.092
C 	C 	0.92718	0.78763	0.68845	0.107
C 	C 	0.92143	0.80685	0.68192	-0.034
C 	C 	0.90161	0.81	0.68527	0.12
C 	C 	0.95253	0.80527	0.67442	0.079
C 	C 	0.8928	0.7264	0.7246	0.369
C 	C 	0.88786	0.72199	0.74633	-0.112
C 	C 	0.86373	0.71597	0.74536	0.035
C 	C 	0.85882	0.71113	0.76529	-0.093
C 	C 	0.87848	0.71317	0.78631	0.026
C 	C 	0.9029	0.721	0.7877	-0.095
C 	C 	0.9075	0.7237	0.767	0.037
C 	C 	0.8608	0.6942	0.869	0.398
C 	C 	0.86511	0.69881	0.84706	-0.165
C 	C 	0.84651	0.69887	0.82784	0.096
C 	C 	0.85116	0.7037	0.80786	-0.155
C 	C 	0.87446	0.70886	0.8076	0.09
C 	C 	0.8929	0.7073	0.8264	-0.158
C 	C 	0.8884	0.7037	0.8465	0.094
C 	C 	0.8409	0.77	0.7205	0.383
C 	C 	0.82517	0.75297	0.72992	-0.122
C 	C 	0.83159	0.76308	0.75641	0.055
C 	C 	0.81642	0.74774	0.76452	-0.122
C 	C 	0.7953	0.72215	0.74581	0.052
C 	C 	0.78889	0.71178	0.71931	-0.123
C 	C 	0.8038	0.7273	0.7111	0.053
C 	C 	0.92222	0.72343	0.61787	0.092
C 	C 	0.90082	0.71237	0.63955	0.107
C 	C 	0.87507	0.69315	0.61458	-0.034
C 	C 	0.87527	0.69	0.59161	0.12
C 	C 	0.86915	0.69473	0.64726	0.079
C 	C 	0.9982	0.7736	0.6664	0.369
C 	C 	0.02434	0.77801	0.66587	-0.112
C 	C 	0.02939	0.78403	0.64776	0.035
C 	C 	0.05416	0.78887	0.64769	-0.093
C 	C 	0.07314	0.78683	0.66531	0.026
C 	C 	0.0667	0.779	0.6819	-0.095
C 	C 	0.0433	0.7763	0.6838	0.037
C 	C 	0.1748	0.8058	0.6666	0.398
C 	C 	0.14825	0.80119	0.6663	-0.165
C 	C 	0.12897	0.80113	0.64764	0.096
C 	C 	0.10416	0.7963	0.64746	-0.155
C 	C 	0.09874	0.79114	0.6656	0.09
C 	C 	0.1191	0.7927	0.6856	-0.158
C 	C 	0.1428	0.7963	0.6847	0.094
C 	C 	0.9505	0.73	0.5709	0.383
C 	C 	0.97695	0.74703	0.5722	-0.122
C 	C 	0.99333	0.73692	0.56851	0.055
C 	C 	0.01678	0.75226	0.56868	-0.122
C 	C 	0.02366	0.77785	0.57315	0.052
C 	C 	0.00753	0.78822	0.57711	-0.123
C 	C 	0.9838	0.7727	0.5765	0.053
C 	C 	0.72343	0.11787	0.42222	0.092
C 	C 	0.71237	0.13955	0.40082	0.107
C 	C 	0.69315	0.11458	0.37507	-0.034
C 	C 	0.69	0.09161	0.37527	0.12
C 	C 	0.69473	0.14726	0.36915	0.079
C 	C 	0.7736	0.1664	0.4982	0.369
C 	C 	0.77801	0.16587	0.52434	-0.112
C 	C 	0.78403	0.14776	0.52939	0.035
C 	C 	0.78887	0.14769	0.55416	-0.093
C 	C 	0.78683	0.16531	0.57314	0.026
C 	C 	0.779	0.1819	0.5667	-0.095
C 	C 	0.7763	0.1838	0.5433	0.037
C 	C 	0.8058	0.1666	0.6748	0.398
C 	C 	0.80119	0.1663	0.64825	-0.165
C 	C 	0.80113	0.14764	0.62897	0.096
C 	C 	0.7963	0.14746	0.60416	-0.155
C 	C 	0.79114	0.1656	0.59874	0.09
C 	C 	0.7927	0.1856	0.6191	-0.158
C 	C 	0.7963	0.1847	0.6428	0.094
C 	C 	0.73	0.0709	0.4505	0.383
C 	C 	0.74703	0.0722	0.47695	-0.122
C 	C 	0.73692	0.06851	0.49333	0.055
C 	C 	0.75226	0.06868	0.51678	-0.122
C 	C 	0.77785	0.07315	0.52366	0.052
C 	C 	0.78822	0.07711	0.50753	-0.123
C 	C 	0.7727	0.0765	0.4838	0.053
C 	C 	0.77657	0.19879	0.39444	0.092
C 	C 	0.78763	0.18845	0.42718	0.107
C 	C 	0.80685	0.18192	0.42143	-0.034
C 	C 	0.81	0.18527	0.40161	0.12
C 	C 	0.80527	0.17442	0.45253	0.079
C 	C 	0.7264	0.2246	0.3928	0.369
C 	C 	0.72199	0.24633	0.38786	-0.112
C 	C 	0.71597	0.24536	0.36373	0.035
C 	C 	0.71113	0.26529	0.35882	-0.093
C 	C 	0.71317	0.28631	0.37848	0.026
C 	C 	0.721	0.2877	0.4029	-0.095
C 	C 	0.7237	0.267	0.4075	0.037
C 	C 	0.6942	0.369	0.3608	0.398
C 	C 	0.69881	0.34706	0.36511	-0.165
C 	C 	0.69887	0.32784	0.34651	0.096
C 	C 	0.7037	0.30786	0.35116	-0.155
C 	C 	0.70886	0.3076	0.37446	0.09
C 	C 	0.7073	0.3264	0.3929	-0.158
C 	C 	0.7037	0.3465	0.3884	0.094
C 	C 	0.77	0.2205	0.3409	0.383
C 	C 	0.75297	0.22992	0.32517	-0.122
C 	C 	0.76308	0.25641	0.33159	0.055
C 	C 	0.74774	0.26452	0.31642	-0.122
C 	C 	0.72215	0.24581	0.2953	0.052
C 	C 	0.71178	0.21931	0.28889	-0.123
C 	C 	0.7273	0.2111	0.3038	0.053
C 	C 	0.30435	0.38213	0.10556	0.092
C 	C 	0.26127	0.36045	0.07282	0.107
C 	C 	0.26049	0.38542	0.07857	-0.034
C 	C 	0.28366	0.40839	0.09839	0.12
C 	C 	0.22189	0.35274	0.04747	0.079
C 	C 	0.3318	0.3336	0.1072	0.369
C 	C 	0.35847	0.33413	0.11214	-0.112
C 	C 	0.38163	0.35224	0.13627	0.035
C 	C 	0.40647	0.35231	0.14118	-0.093
C 	C 	0.40783	0.33469	0.12152	0.026
C 	C 	0.3848	0.3181	0.0971	-0.095
C 	C 	0.3595	0.3162	0.0925	0.037
C 	C 	0.5082	0.3334	0.1392	0.398
C 	C 	0.48195	0.3337	0.13489	-0.165
C 	C 	0.48133	0.35236	0.15349	0.096
C 	C 	0.4567	0.35254	0.14884	-0.155
C 	C 	0.43314	0.3344	0.12554	0.09
C 	C 	0.4335	0.3144	0.1071	-0.158
C 	C 	0.4581	0.3153	0.1116	0.094
C 	C 	0.3796	0.4291	0.1591	0.383
C 	C 	0.40475	0.4278	0.17483	-0.122
C 	C 	0.42482	0.43149	0.16841	0.055
C 	C 	0.4481	0.43132	0.18358	-0.122
C 	C 	0.45051	0.42685	0.2047	0.052
C 	C 	0.43042	0.42289	0.21111	-0.123
C 	C 	0.4073	0.4235	0.1962	0.053
C 	C 	0.19565	0.30121	0.07778	0.092
C 	C 	0.23873	0.31155	0.09918	0.107
C 	C 	0.23951	0.31808	0.12493	-0.034
C 	C 	0.21634	0.31473	0.12473	0.12
C 	C 	0.27811	0.32558	0.13085	0.079
C 	C 	0.1682	0.2754	0.0018	0.369
C 	C 	0.14153	0.25367	0.97566	-0.112
C 	C 	0.11837	0.25464	0.97061	0.035
C 	C 	0.09353	0.23471	0.94584	-0.093
C 	C 	0.09217	0.21369	0.92686	0.026
C 	C 	0.1152	0.2123	0.9333	-0.095
C 	C 	0.1405	0.233	0.9567	0.037
C 	C 	0.9918	0.131	0.8252	0.398
C 	C 	0.01805	0.15294	0.85175	-0.165
C 	C 	0.01867	0.17216	0.87103	0.096
C 	C 	0.0433	0.19214	0.89584	-0.155
C 	C 	0.06686	0.1924	0.90126	0.09
C 	C 	0.0665	0.1736	0.8809	-0.158
C 	C 	0.0419	0.1535	0.8572	0.094
C 	C 	0.1204	0.2795	0.0495	0.383
C 	C 	0.09525	0.27008	0.02305	-0.122
C 	C 	0.07518	0.24359	0.00667	0.055
C 	C 	0.0519	0.23548	0.98322	-0.122
C 	C 	0.04949	0.25419	0.97634	0.052
C 	C 	0.06958	0.28069	0.99247	-0.123
C 	C 	0.0927	0.2889	0.0162	0.053
C 	C 	0.39444	0.69879	0.77657	0.092
C 	C 	0.42718	0.68845	0.78763	0.107
C 	C 	0.42143	0.68192	0.80685	-0.034
C 	C 	0.40161	0.68527	0.81	0.12
C 	C 	0.45253	0.67442	0.80527	0.079
C 	C 	0.3928	0.7246	0.7264	0.369
C 	C 	0.38786	0.74633	0.72199	-0.112
C 	C 	0.36373	0.74536	0.71597	0.035
C 	C 	0.35882	0.76529	0.71113	-0.093
C 	C 	0.37848	0.78631	0.71317	0.026
C 	C 	0.4029	0.7877	0.721	-0.095
C 	C 	0.4075	0.767	0.7237	0.037
C 	C 	0.3608	0.869	0.6942	0.398
C 	C 	0.36511	0.84706	0.69881	-0.165
C 	C 	0.34651	0.82784	0.69887	0.096
C 	C 	0.35116	0.80786	0.7037	-0.155
C 	C 	0.37446	0.8076	0.70886	0.09
C 	C 	0.3929	0.8264	0.7073	-0.158
C 	C 	0.3884	0.8465	0.7037	0.094
C 	C 	0.3409	0.7205	0.77	0.383
C 	C 	0.32517	0.72992	0.75297	-0.122
C 	C 	0.33159	0.75641	0.76308	0.055
C 	C 	0.31642	0.76452	0.74774	-0.122
C 	C 	0.2953	0.74581	0.72215	0.052
C 	C 	0.28889	0.71931	0.71178	-0.123
C 	C 	0.3038	0.7111	0.7273	0.053
C 	C 	0.42222	0.61787	0.72343	0.092
C 	C 	0.40082	0.63955	0.71237	0.107
C 	C 	0.37507	0.61458	0.69315	-0.034
C 	C 	0.37527	0.59161	0.69	0.12
C 	C 	0.36915	0.64726	0.69473	0.079
C 	C 	0.4982	0.6664	0.7736	0.369
C 	C 	0.52434	0.66587	0.77801	-0.112
C 	C 	0.52939	0.64776	0.78403	0.035
C 	C 	0.55416	0.64769	0.78887	-0.093
C 	C 	0.57314	0.66531	0.78683	0.026
C 	C 	0.5667	0.6819	0.779	-0.095
C 	C 	0.5433	0.6838	0.7763	0.037
C 	C 	0.6748	0.6666	0.8058	0.398
C 	C 	0.64825	0.6663	0.80119	-0.165
C 	C 	0.62897	0.64764	0.80113	0.096
C 	C 	0.60416	0.64746	0.7963	-0.155
C 	C 	0.59874	0.6656	0.79114	0.09
C 	C 	0.6191	0.6856	0.7927	-0.158
C 	C 	0.6428	0.6847	0.7963	0.094
C 	C 	0.4505	0.5709	0.73	0.383
C 	C 	0.47695	0.5722	0.74703	-0.122
C 	C 	0.49333	0.56851	0.73692	0.055
C 	C 	0.51678	0.56868	0.75226	-0.122
C 	C 	0.52366	0.57315	0.77785	0.052
C 	C 	0.50753	0.57711	0.78822	-0.123
C 	C 	0.4838	0.5765	0.7727	0.053
C 	C 	0.07778	0.80121	0.19565	0.092
C 	C 	0.09918	0.81155	0.23873	0.107
C 	C 	0.12493	0.81808	0.23951	-0.034
C 	C 	0.12473	0.81473	0.21634	0.12
C 	C 	0.13085	0.82558	0.27811	0.079
C 	C 	0.0018	0.7754	0.1682	0.369
C 	C 	0.97566	0.75367	0.14153	-0.112
C 	C 	0.97061	0.75464	0.11837	0.035
C 	C 	0.94584	0.73471	0.09353	-0.093
C 	C 	0.92686	0.71369	0.09217	0.026
C 	C 	0.9333	0.7123	0.1152	-0.095
C 	C 	0.9567	0.733	0.1405	0.037
C 	C 	0.8252	0.631	0.9918	0.398
C 	C 	0.85175	0.65294	0.01805	-0.165
C 	C 	0.87103	0.67216	0.01867	0.096
C 	C 	0.89584	0.69214	0.0433	-0.155
C 	C 	0.90126	0.6924	0.06686	0.09
C 	C 	0.8809	0.6736	0.0665	-0.158
C 	C 	0.8572	0.6535	0.0419	0.094
C 	C 	0.0495	0.7795	0.1204	0.383
C 	C 	0.02305	0.77008	0.09525	-0.122
C 	C 	0.00667	0.74359	0.07518	0.055
C 	C 	0.98322	0.73548	0.0519	-0.122
C 	C 	0.97634	0.75419	0.04949	0.052
C 	C 	0.99247	0.78069	0.06958	-0.123
C 	C 	0.0162	0.7889	0.0927	0.053
C 	C 	0.10556	0.88213	0.30435	0.092
C 	C 	0.07282	0.86045	0.26127	0.107
C 	C 	0.07857	0.88542	0.26049	-0.034
C 	C 	0.09839	0.90839	0.28366	0.12
C 	C 	0.04747	0.85274	0.22189	0.079
C 	C 	0.1072	0.8336	0.3318	0.369
C 	C 	0.11214	0.83413	0.35847	-0.112
C 	C 	0.13627	0.85224	0.38163	0.035
C 	C 	0.14118	0.85231	0.40647	-0.093
C 	C 	0.12152	0.83469	0.40783	0.026
C 	C 	0.0971	0.8181	0.3848	-0.095
C 	C 	0.0925	0.8162	0.3595	0.037
C 	C 	0.1392	0.8334	0.5082	0.398
C 	C 	0.13489	0.8337	0.48195	-0.165
C 	C 	0.15349	0.85236	0.48133	0.096
C 	C 	0.14884	0.85254	0.4567	-0.155
C 	C 	0.12554	0.8344	0.43314	0.09
C 	C 	0.1071	0.8144	0.4335	-0.158
C 	C 	0.1116	0.8153	0.4581	0.094
C 	C 	0.1591	0.9291	0.3796	0.383
C 	C 	0.17483	0.9278	0.40475	-0.122
C 	C 	0.16841	0.93149	0.42482	0.055
C 	C 	0.18358	0.93132	0.4481	-0.122
C 	C 	0.2047	0.92685	0.45051	0.052
C 	C 	0.21111	0.92289	0.43042	-0.123
C 	C 	0.1962	0.9235	0.4073	0.053
C 	C 	0.69565	0.07778	0.30121	0.092
C 	C 	0.73873	0.09918	0.31155	0.107
C 	C 	0.73951	0.12493	0.31808	-0.034
C 	C 	0.71634	0.12473	0.31473	0.12
C 	C 	0.77811	0.13085	0.32558	0.079
C 	C 	0.6682	0.0018	0.2754	0.369
C 	C 	0.64153	0.97566	0.25367	-0.112
C 	C 	0.61837	0.97061	0.25464	0.035
C 	C 	0.59353	0.94584	0.23471	-0.093
C 	C 	0.59217	0.92686	0.21369	0.026
C 	C 	0.6152	0.9333	0.2123	-0.095
C 	C 	0.6405	0.9567	0.233	0.037
C 	C 	0.4918	0.8252	0.131	0.398
C 	C 	0.51805	0.85175	0.15294	-0.165
C 	C 	0.51867	0.87103	0.17216	0.096
C 	C 	0.5433	0.89584	0.19214	-0.155
C 	C 	0.56686	0.90126	0.1924	0.09
C 	C 	0.5665	0.8809	0.1736	-0.158
C 	C 	0.5419	0.8572	0.1535	0.094
C 	C 	0.6204	0.0495	0.2795	0.383
C 	C 	0.59525	0.02305	0.27008	-0.122
C 	C 	0.57518	0.00667	0.24359	0.055
C 	C 	0.5519	0.98322	0.23548	-0.122
C 	C 	0.54949	0.97634	0.25419	0.052
C 	C 	0.56958	0.99247	0.28069	-0.123
C 	C 	0.5927	0.0162	0.2889	0.053
C 	C 	0.80435	0.10556	0.38213	0.092
C 	C 	0.76127	0.07282	0.36045	0.107
C 	C 	0.76049	0.07857	0.38542	-0.034
C 	C 	0.78366	0.09839	0.40839	0.12
C 	C 	0.72189	0.04747	0.35274	0.079
C 	C 	0.8318	0.1072	0.3336	0.369
C 	C 	0.85847	0.11214	0.33413	-0.112
C 	C 	0.88163	0.13627	0.35224	0.035
C 	C 	0.90647	0.14118	0.35231	-0.093
C 	C 	0.90783	0.12152	0.33469	0.026
C 	C 	0.8848	0.0971	0.3181	-0.095
C 	C 	0.8595	0.0925	0.3162	0.037
C 	C 	0.0082	0.1392	0.3334	0.398
C 	C 	0.98195	0.13489	0.3337	-0.165
C 	C 	0.98133	0.15349	0.35236	0.096
C 	C 	0.9567	0.14884	0.35254	-0.155
C 	C 	0.93314	0.12554	0.3344	0.09
C 	C 	0.9335	0.1071	0.3144	-0.158
C 	C 	0.9581	0.1116	0.3153	0.094
C 	C 	0.8796	0.1591	0.4291	0.383
C 	C 	0.90475	0.17483	0.4278	-0.122
C 	C 	0.92482	0.16841	0.43149	0.055
C 	C 	0.9481	0.18358	0.43132	-0.122
C 	C 	0.95051	0.2047	0.42685	0.052
C 	C 	0.93042	0.21111	0.42289	-0.123
C 	C 	0.9073	0.1962	0.4235	0.053
C 	C 	0.27657	0.39444	0.19879	0.092
C 	C 	0.28763	0.42718	0.18845	0.107
C 	C 	0.30685	0.42143	0.18192	-0.034
C 	C 	0.31	0.40161	0.18527	0.12
C 	C 	0.30527	0.45253	0.17442	0.079
C 	C 	0.2264	0.3928	0.2246	0.369
C 	C 	0.22199	0.38786	0.24633	-0.112
C 	C 	0.21597	0.36373	0.24536	0.035
C 	C 	0.21113	0.35882	0.26529	-0.093
C 	C 	0.21317	0.37848	0.28631	0.026
C 	C 	0.221	0.4029	0.2877	-0.095
C 	C 	0.2237	0.4075	0.267	0.037
C 	C 	0.1942	0.3608	0.369	0.398
C 	C 	0.19881	0.36511	0.34706	-0.165
C 	C 	0.19887	0.34651	0.32784	0.096
C 	C 	0.2037	0.35116	0.30786	-0.155
C 	C 	0.20886	0.37446	0.3076	0.09
C 	C 	0.2073	0.3929	0.3264	-0.158
C 	C 	0.2037	0.3884	0.3465	0.094
C 	C 	0.27	0.3409	0.2205	0.383
C 	C 	0.25297	0.32517	0.22992	-0.122
C 	C 	0.26308	0.33159	0.25641	0.055
C 	C 	0.24774	0.31642	0.26452	-0.122
C 	C 	0.22215	0.2953	0.24581	0.052
C 	C 	0.21178	0.28889	0.21931	-0.123
C 	C 	0.2273	0.3038	0.2111	0.053
C 	C 	0.22343	0.42222	0.11787	0.092
C 	C 	0.21237	0.40082	0.13955	0.107
C 	C 	0.19315	0.37507	0.11458	-0.034
C 	C 	0.19	0.37527	0.09161	0.12
C 	C 	0.19473	0.36915	0.14726	0.079
C 	C 	0.2736	0.4982	0.1664	0.369
C 	C 	0.27801	0.52434	0.16587	-0.112
C 	C 	0.28403	0.52939	0.14776	0.035
C 	C 	0.28887	0.55416	0.14769	-0.093
C 	C 	0.28683	0.57314	0.16531	0.026
C 	C 	0.279	0.5667	0.1819	-0.095
C 	C 	0.2763	0.5433	0.1838	0.037
C 	C 	0.3058	0.6748	0.1666	0.398
C 	C 	0.30119	0.64825	0.1663	-0.165
C 	C 	0.30113	0.62897	0.14764	0.096
C 	C 	0.2963	0.60416	0.14746	-0.155
C 	C 	0.29114	0.59874	0.1656	0.09
C 	C 	0.2927	0.6191	0.1856	-0.158
C 	C 	0.2963	0.6428	0.1847	0.094
C 	C 	0.23	0.4505	0.0709	0.383
C 	C 	0.24703	0.47695	0.0722	-0.122
C 	C 	0.23692	0.49333	0.06851	0.055
C 	C 	0.25226	0.51678	0.06868	-0.122
C 	C 	0.27785	0.52366	0.07315	0.052
C 	C 	0.28822	0.50753	0.07711	-0.123
C 	C 	0.2727	0.4838	0.0765	0.053
C 	C 	0.61787	0.22343	0.92222	0.092
C 	C 	0.63955	0.21237	0.90082	0.107
C 	C 	0.61458	0.19315	0.87507	-0.034
C 	C 	0.59161	0.19	0.87527	0.12
C 	C 	0.64726	0.19473	0.86915	0.079
C 	C 	0.6664	0.2736	0.9982	0.369
C 	C 	0.66587	0.27801	0.02434	-0.112
C 	C 	0.64776	0.28403	0.02939	0.035
C 	C 	0.64769	0.28887	0.05416	-0.093
C 	C 	0.66531	0.28683	0.07314	0.026
C 	C 	0.6819	0.279	0.0667	-0.095
C 	C 	0.6838	0.2763	0.0433	0.037
C 	C 	0.6666	0.3058	0.1748	0.398
C 	C 	0.6663	0.30119	0.14825	-0.165
C 	C 	0.64764	0.30113	0.12897	0.096
C 	C 	0.64746	0.2963	0.10416	-0.155
C 	C 	0.6656	0.29114	0.09874	0.09
C 	C 	0.6856	0.2927	0.1191	-0.158
C 	C 	0.6847	0.2963	0.1428	0.094
C 	C 	0.5709	0.23	0.9505	0.383
C 	C 	0.5722	0.24703	0.97695	-0.122
C 	C 	0.56851	0.23692	0.99333	0.055
C 	C 	0.56868	0.25226	0.01678	-0.122
C 	C 	0.57315	0.27785	0.02366	0.052
C 	C 	0.57711	0.28822	0.00753	-0.123
C 	C 	0.5765	0.2727	0.9838	0.053
C 	C 	0.69879	0.27657	0.89444	0.092
C 	C 	0.68845	0.28763	0.92718	0.107
C 	C 	0.68192	0.30685	0.92143	-0.034
C 	C 	0.68527	0.31	0.90161	0.12
C 	C 	0.67442	0.30527	0.95253	0.079
C 	C 	0.7246	0.2264	0.8928	0.369
C 	C 	0.74633	0.22199	0.88786	-0.112
C 	C 	0.74536	0.21597	0.86373	0.035
C 	C 	0.76529	0.21113	0.85882	-0.093
C 	C 	0.78631	0.21317	0.87848	0.026
C 	C 	0.7877	0.221	0.9029	-0.095
C 	C 	0.767	0.2237	0.9075	0.037
C 	C 	0.869	0.1942	0.8608	0.398
C 	C 	0.84706	0.19881	0.86511	-0.165
C 	C 	0.82784	0.19887	0.84651	0.096
C 	C 	0.80786	0.2037	0.85116	-0.155
C 	C 	0.8076	0.20886	0.87446	0.09
C 	C 	0.8264	0.2073	0.8929	-0.158
C 	C 	0.8465	0.2037	0.8884	0.094
C 	C 	0.7205	0.27	0.8409	0.383
C 	C 	0.72992	0.25297	0.82517	-0.122
C 	C 	0.75641	0.26308	0.83159	0.055
C 	C 	0.76452	0.24774	0.81642	-0.122
C 	C 	0.74581	0.22215	0.7953	0.052
C 	C 	0.71931	0.21178	0.78889	-0.123
C 	C 	0.7111	0.2273	0.8038	0.053
C 	C 	0.88213	0.80435	0.60556	0.092
C 	C 	0.86045	0.76127	0.57282	0.107
C 	C 	0.88542	0.76049	0.57857	-0.034
C 	C 	0.90839	0.78366	0.59839	0.12
C 	C 	0.85274	0.72189	0.54747	0.079
C 	C 	0.8336	0.8318	0.6072	0.369
C 	C 	0.83413	0.85847	0.61214	-0.112
C 	C 	0.85224	0.88163	0.63627	0.035
C 	C 	0.85231	0.90647	0.64118	-0.093
C 	C 	0.83469	0.90783	0.62152	0.026
C 	C 	0.8181	0.8848	0.5971	-0.095
C 	C 	0.8162	0.8595	0.5925	0.037
C 	C 	0.8334	0.0082	0.6392	0.398
C 	C 	0.8337	0.98195	0.63489	-0.165
C 	C 	0.85236	0.98133	0.65349	0.096
C 	C 	0.85254	0.9567	0.64884	-0.155
C 	C 	0.8344	0.93314	0.62554	0.09
C 	C 	0.8144	0.9335	0.6071	-0.158
C 	C 	0.8153	0.9581	0.6116	0.094
C 	C 	0.9291	0.8796	0.6591	0.383
C 	C 	0.9278	0.90475	0.67483	-0.122
C 	C 	0.93149	0.92482	0.66841	0.055
C 	C 	0.93132	0.9481	0.68358	-0.122
C 	C 	0.92685	0.95051	0.7047	0.052
C 	C 	0.92289	0.93042	0.71111	-0.123
C 	C 	0.9235	0.9073	0.6962	0.053
C 	C 	0.80121	0.69565	0.57778	0.092
C 	C 	0.81155	0.73873	0.59918	0.107
C 	C 	0.81808	0.73951	0.62493	-0.034
C 	C 	0.81473	0.71634	0.62473	0.12
C 	C 	0.82558	0.77811	0.63085	0.079
C 	C 	0.7754	0.6682	0.5018	0.369
C 	C 	0.75367	0.64153	0.47566	-0.112
C 	C 	0.75464	0.61837	0.47061	0.035
C 	C 	0.73471	0.59353	0.44584	-0.093
C 	C 	0.71369	0.59217	0.42686	0.026
C 	C 	0.7123	0.6152	0.4333	-0.095
C 	C 	0.733	0.6405	0.4567	0.037
C 	C 	0.631	0.4918	0.3252	0.398
C 	C 	0.65294	0.51805	0.35175	-0.165
C 	C 	0.67216	0.51867	0.37103	0.096
C 	C 	0.69214	0.5433	0.39584	-0.155
C 	C 	0.6924	0.56686	0.40126	0.09
C 	C 	0.6736	0.5665	0.3809	-0.158
C 	C 	0.6535	0.5419	0.3572	0.094
C 	C 	0.7795	0.6204	0.5495	0.383
C 	C 	0.77008	0.59525	0.52305	-0.122
C 	C 	0.74359	0.57518	0.50667	0.055
C 	C 	0.73548	0.5519	0.48322	-0.122
C 	C 	0.75419	0.54949	0.47634	0.052
C 	C 	0.78069	0.56958	0.49247	-0.123
C 	C 	0.7889	0.5927	0.5162	0.053
C 	C 	0.80121	0.10556	0.72343	0.092
C 	C 	0.81155	0.07282	0.71237	0.107
C 	C 	0.81808	0.07857	0.69315	-0.034
C 	C 	0.81473	0.09839	0.69	0.12
C 	C 	0.82558	0.04747	0.69473	0.079
C 	C 	0.7754	0.1072	0.7736	0.369
C 	C 	0.75367	0.11214	0.77801	-0.112
C 	C 	0.75464	0.13627	0.78403	0.035
C 	C 	0.73471	0.14118	0.78887	-0.093
C 	C 	0.71369	0.12152	0.78683	0.026
C 	C 	0.7123	0.0971	0.779	-0.095
C 	C 	0.733	0.0925	0.7763	0.037
C 	C 	0.631	0.1392	0.8058	0.398
C 	C 	0.65294	0.13489	0.80119	-0.165
C 	C 	0.67216	0.15349	0.80113	0.096
C 	C 	0.69214	0.14884	0.7963	-0.155
C 	C 	0.6924	0.12554	0.79114	0.09
C 	C 	0.6736	0.1071	0.7927	-0.158
C 	C 	0.6535	0.1116	0.7963	0.094
C 	C 	0.7795	0.1591	0.73	0.383
C 	C 	0.77008	0.17483	0.74703	-0.122
C 	C 	0.74359	0.16841	0.73692	0.055
C 	C 	0.73548	0.18358	0.75226	-0.122
C 	C 	0.75419	0.2047	0.77785	0.052
C 	C 	0.78069	0.21111	0.78822	-0.123
C 	C 	0.7889	0.1962	0.7727	0.053
C 	C 	0.88213	0.07778	0.77657	0.092
C 	C 	0.86045	0.09918	0.78763	0.107
C 	C 	0.88542	0.12493	0.80685	-0.034
C 	C 	0.90839	0.12473	0.81	0.12
C 	C 	0.85274	0.13085	0.80527	0.079
C 	C 	0.8336	0.0018	0.7264	0.369
C 	C 	0.83413	0.97566	0.72199	-0.112
C 	C 	0.85224	0.97061	0.71597	0.035
C 	C 	0.85231	0.94584	0.71113	-0.093
C 	C 	0.83469	0.92686	0.71317	0.026
C 	C 	0.8181	0.9333	0.721	-0.095
C 	C 	0.8162	0.9567	0.7237	0.037
C 	C 	0.8334	0.8252	0.6942	0.398
C 	C 	0.8337	0.85175	0.69881	-0.165
C 	C 	0.85236	0.87103	0.69887	0.096
C 	C 	0.85254	0.89584	0.7037	-0.155
C 	C 	0.8344	0.90126	0.70886	0.09
C 	C 	0.8144	0.8809	0.7073	-0.158
C 	C 	0.8153	0.8572	0.7037	0.094
C 	C 	0.9291	0.0495	0.77	0.383
C 	C 	0.9278	0.02305	0.75297	-0.122
C 	C 	0.93149	0.00667	0.76308	0.055
C 	C 	0.93132	0.98322	0.74774	-0.122
C 	C 	0.92685	0.97634	0.72215	0.052
C 	C 	0.92289	0.99247	0.71178	-0.123
C 	C 	0.9235	0.0162	0.7273	0.053
C 	C 	0.69879	0.42222	0.30435	0.092
C 	C 	0.68845	0.40082	0.26127	0.107
C 	C 	0.68192	0.37507	0.26049	-0.034
C 	C 	0.68527	0.37527	0.28366	0.12
C 	C 	0.67442	0.36915	0.22189	0.079
C 	C 	0.7246	0.4982	0.3318	0.369
C 	C 	0.74633	0.52434	0.35847	-0.112
C 	C 	0.74536	0.52939	0.38163	0.035
C 	C 	0.76529	0.55416	0.40647	-0.093
C 	C 	0.78631	0.57314	0.40783	0.026
C 	C 	0.7877	0.5667	0.3848	-0.095
C 	C 	0.767	0.5433	0.3595	0.037
C 	C 	0.869	0.6748	0.5082	0.398
C 	C 	0.84706	0.64825	0.48195	-0.165
C 	C 	0.82784	0.62897	0.48133	0.096
C 	C 	0.80786	0.60416	0.4567	-0.155
C 	C 	0.8076	0.59874	0.43314	0.09
C 	C 	0.8264	0.6191	0.4335	-0.158
C 	C 	0.8465	0.6428	0.4581	0.094
C 	C 	0.7205	0.4505	0.3796	0.383
C 	C 	0.72992	0.47695	0.40475	-0.122
C 	C 	0.75641	0.49333	0.42482	0.055
C 	C 	0.76452	0.51678	0.4481	-0.122
C 	C 	0.74581	0.52366	0.45051	0.052
C 	C 	0.71931	0.50753	0.43042	-0.123
C 	C 	0.7111	0.4838	0.4073	0.053
C 	C 	0.61787	0.39444	0.19565	0.092
C 	C 	0.63955	0.42718	0.23873	0.107
C 	C 	0.61458	0.42143	0.23951	-0.034
C 	C 	0.59161	0.40161	0.21634	0.12
C 	C 	0.64726	0.45253	0.27811	0.079
C 	C 	0.6664	0.3928	0.1682	0.369
C 	C 	0.66587	0.38786	0.14153	-0.112
C 	C 	0.64776	0.36373	0.11837	0.035
C 	C 	0.64769	0.35882	0.09353	-0.093
C 	C 	0.66531	0.37848	0.09217	0.026
C 	C 	0.6819	0.4029	0.1152	-0.095
C 	C 	0.6838	0.4075	0.1405	0.037
C 	C 	0.6666	0.3608	0.9918	0.398
C 	C 	0.6663	0.36511	0.01805	-0.165
C 	C 	0.64764	0.34651	0.01867	0.096
C 	C 	0.64746	0.35116	0.0433	-0.155
C 	C 	0.6656	0.37446	0.06686	0.09
C 	C 	0.6856	0.3929	0.0665	-0.158
C 	C 	0.6847	0.3884	0.0419	0.094
C 	C 	0.5709	0.3409	0.1204	0.383
C 	C 	0.5722	0.32517	0.09525	-0.122
C 	C 	0.56851	0.33159	0.07518	0.055
C 	C 	0.56868	0.31642	0.0519	-0.122
C 	C 	0.57315	0.2953	0.04949	0.052
C 	C 	0.57711	0.28889	0.06958	-0.123
C 	C 	0.5765	0.3038	0.0927	0.053
C 	C 	0.42222	0.80435	0.19879	0.092
C 	C 	0.40082	0.76127	0.18845	0.107
C 	C 	0.37507	0.76049	0.18192	-0.034
C 	C 	0.37527	0.78366	0.18527	0.12
C 	C 	0.36915	0.72189	0.17442	0.079
C 	C 	0.4982	0.8318	0.2246	0.369
C 	C 	0.52434	0.85847	0.24633	-0.112
C 	C 	0.52939	0.88163	0.24536	0.035
C 	C 	0.55416	0.90647	0.26529	-0.093
C 	C 	0.57314	0.90783	0.28631	0.026
C 	C 	0.5667	0.8848	0.2877	-0.095
C 	C 	0.5433	0.8595	0.267	0.037
C 	C 	0.6748	0.0082	0.369	0.398
C 	C 	0.64825	0.98195	0.34706	-0.165
C 	C 	0.62897	0.98133	0.32784	0.096
C 	C 	0.60416	0.9567	0.30786	-0.155
C 	C 	0.59874	0.93314	0.3076	0.09
C 	C 	0.6191	0.9335	0.3264	-0.158
C 	C 	0.6428	0.9581	0.3465	0.094
C 	C 	0.4505	0.8796	0.2205	0.383
C 	C 	0.47695	0.90475	0.22992	-0.122
C 	C 	0.49333	0.92482	0.25641	0.055
C 	C 	0.51678	0.9481	0.26452	-0.122
C 	C 	0.52366	0.95051	0.24581	0.052
C 	C 	0.50753	0.93042	0.21931	-0.123
C 	C 	0.4838	0.9073	0.2111	0.053
C 	C 	0.39444	0.69565	0.11787	0.092
C 	C 	0.42718	0.73873	0.13955	0.107
C 	C 	0.42143	0.73951	0.11458	-0.034
C 	C 	0.40161	0.71634	0.09161	0.12
C 	C 	0.45253	0.77811	0.14726	0.079
C 	C 	0.3928	0.6682	0.1664	0.369
C 	C 	0.38786	0.64153	0.16587	-0.112
C 	C 	0.36373	0.61837	0.14776	0.035
C 	C 	0.35882	0.59353	0.14769	-0.093
C 	C 	0.37848	0.59217	0.16531	0.026
C 	C 	0.4029	0.6152	0.1819	-0.095
C 	C 	0.4075	0.6405	0.1838	0.037
C 	C 	0.3608	0.4918	0.1666	0.398
C 	C 	0.36511	0.51805	0.1663	-0.165
C 	C 	0.34651	0.51867	0.14764	0.096
C 	C 	0.35116	0.5433	0.14746	-0.155
C 	C 	0.37446	0.56686	0.1656	0.09
C 	C 	0.3929	0.5665	0.1856	-0.158
C 	C 	0.3884	0.5419	0.1847	0.094
C 	C 	0.3409	0.6204	0.0709	0.383
C 	C 	0.32517	0.59525	0.0722	-0.122
C 	C 	0.33159	0.57518	0.06851	0.055
C 	C 	0.31642	0.5519	0.06868	-0.122
C 	C 	0.2953	0.54949	0.07315	0.052
C 	C 	0.28889	0.56958	0.07711	-0.123
C 	C 	0.3038	0.5927	0.0765	0.053
C 	C 	0.10556	0.22343	0.30121	0.092
C 	C 	0.07282	0.21237	0.31155	0.107
C 	C 	0.07857	0.19315	0.31808	-0.034
C 	C 	0.09839	0.19	0.31473	0.12
C 	C 	0.04747	0.19473	0.32558	0.079
C 	C 	0.1072	0.2736	0.2754	0.369
C 	C 	0.11214	0.27801	0.25367	-0.112
C 	C 	0.13627	0.28403	0.25464	0.035
C 	C 	0.14118	0.28887	0.23471	-0.093
C 	C 	0.12152	0.28683	0.21369	0.026
C 	C 	0.0971	0.279	0.2123	-0.095
C 	C 	0.0925	0.2763	0.233	0.037
C 	C 	0.1392	0.3058	0.131	0.398
C 	C 	0.13489	0.30119	0.15294	-0.165
C 	C 	0.15349	0.30113	0.17216	0.096
C 	C 	0.14884	0.2963	0.19214	-0.155
C 	C 	0.12554	0.29114	0.1924	0.09
C 	C 	0.1071	0.2927	0.1736	-0.158
C 	C 	0.1116	0.2963	0.1535	0.094
C 	C 	0.1591	0.23	0.2795	0.383
C 	C 	0.17483	0.24703	0.27008	-0.122
C 	C 	0.16841	0.23692	0.24359	0.055
C 	C 	0.18358	0.25226	0.23548	-0.122
C 	C 	0.2047	0.27785	0.25419	0.052
C 	C 	0.21111	0.28822	0.28069	-0.123
C 	C 	0.1962	0.2727	0.2889	0.053
C 	C 	0.07778	0.27657	0.38213	0.092
C 	C 	0.09918	0.28763	0.36045	0.107
C 	C 	0.12493	0.30685	0.38542	-0.034
C 	C 	0.12473	0.31	0.40839	0.12
C 	C 	0.13085	0.30527	0.35274	0.079
C 	C 	0.0018	0.2264	0.3336	0.369
C 	C 	0.97566	0.22199	0.33413	-0.112
C 	C 	0.97061	0.21597	0.35224	0.035
C 	C 	0.94584	0.21113	0.35231	-0.093
C 	C 	0.92686	0.21317	0.33469	0.026
C 	C 	0.9333	0.221	0.3181	-0.095
C 	C 	0.9567	0.2237	0.3162	0.037
C 	C 	0.8252	0.1942	0.3334	0.398
C 	C 	0.85175	0.19881	0.3337	-0.165
C 	C 	0.87103	0.19887	0.35236	0.096
C 	C 	0.89584	0.2037	0.35254	-0.155
C 	C 	0.90126	0.20886	0.3344	0.09
C 	C 	0.8809	0.2073	0.3144	-0.158
C 	C 	0.8572	0.2037	0.3153	0.094
C 	C 	0.0495	0.27	0.4291	0.383
C 	C 	0.02305	0.25297	0.4278	-0.122
C 	C 	0.00667	0.26308	0.43149	0.055
C 	C 	0.98322	0.24774	0.43132	-0.122
C 	C 	0.97634	0.22215	0.42685	0.052
C 	C 	0.99247	0.21178	0.42289	-0.123
C 	C 	0.0162	0.2273	0.4235	0.053
C 	C 	0.27657	0.88213	0.57778	0.092
C 	C 	0.28763	0.86045	0.59918	0.107
C 	C 	0.30685	0.88542	0.62493	-0.034
C 	C 	0.31	0.90839	0.62473	0.12
C 	C 	0.30527	0.85274	0.63085	0.079
C 	C 	0.2264	0.8336	0.5018	0.369
C 	C 	0.22199	0.83413	0.47566	-0.112
C 	C 	0.21597	0.85224	0.47061	0.035
C 	C 	0.21113	0.85231	0.44584	-0.093
C 	C 	0.21317	0.83469	0.42686	0.026
C 	C 	0.221	0.8181	0.4333	-0.095
C 	C 	0.2237	0.8162	0.4567	0.037
C 	C 	0.1942	0.8334	0.3252	0.398
C 	C 	0.19881	0.8337	0.35175	-0.165
C 	C 	0.19887	0.85236	0.37103	0.096
C 	C 	0.2037	0.85254	0.39584	-0.155
C 	C 	0.20886	0.8344	0.40126	0.09
C 	C 	0.2073	0.8144	0.3809	-0.158
C 	C 	0.2037	0.8153	0.3572	0.094
C 	C 	0.27	0.9291	0.5495	0.383
C 	C 	0.25297	0.9278	0.52305	-0.122
C 	C 	0.26308	0.93149	0.50667	0.055
C 	C 	0.24774	0.93132	0.48322	-0.122
C 	C 	0.22215	0.92685	0.47634	0.052
C 	C 	0.21178	0.92289	0.49247	-0.123
C 	C 	0.2273	0.9235	0.5162	0.053
C 	C 	0.22343	0.80121	0.60556	0.092
C 	C 	0.21237	0.81155	0.57282	0.107
C 	C 	0.19315	0.81808	0.57857	-0.034
C 	C 	0.19	0.81473	0.59839	0.12
C 	C 	0.19473	0.82558	0.54747	0.079
C 	C 	0.2736	0.7754	0.6072	0.369
C 	C 	0.27801	0.75367	0.61214	-0.112
C 	C 	0.28403	0.75464	0.63627	0.035
C 	C 	0.28887	0.73471	0.64118	-0.093
C 	C 	0.28683	0.71369	0.62152	0.026
C 	C 	0.279	0.7123	0.5971	-0.095
C 	C 	0.2763	0.733	0.5925	0.037
C 	C 	0.3058	0.631	0.6392	0.398
C 	C 	0.30119	0.65294	0.63489	-0.165
C 	C 	0.30113	0.67216	0.65349	0.096
C 	C 	0.2963	0.69214	0.64884	-0.155
C 	C 	0.29114	0.6924	0.62554	0.09
C 	C 	0.2927	0.6736	0.6071	-0.158
C 	C 	0.2963	0.6535	0.6116	0.094
C 	C 	0.23	0.7795	0.6591	0.383
C 	C 	0.24703	0.77008	0.67483	-0.122
C 	C 	0.23692	0.74359	0.66841	0.055
C 	C 	0.25226	0.73548	0.68358	-0.122
C 	C 	0.27785	0.75419	0.7047	0.052
C 	C 	0.28822	0.78069	0.71111	-0.123
C 	C 	0.2727	0.7889	0.6962	0.053
C 	C 	0.69565	0.61787	0.89444	0.092
C 	C 	0.73873	0.63955	0.92718	0.107
C 	C 	0.73951	0.61458	0.92143	-0.034
C 	C 	0.71634	0.59161	0.90161	0.12
C 	C 	0.77811	0.64726	0.95253	0.079
C 	C 	0.6682	0.6664	0.8928	0.369
C 	C 	0.64153	0.66587	0.88786	-0.112
C 	C 	0.61837	0.64776	0.86373	0.035
C 	C 	0.59353	0.64769	0.85882	-0.093
C 	C 	0.59217	0.66531	0.87848	0.026
C 	C 	0.6152	0.6819	0.9029	-0.095
C 	C 	0.6405	0.6838	0.9075	0.037
C 	C 	0.4918	0.6666	0.8608	0.398
C 	C 	0.51805	0.6663	0.86511	-0.165
C 	C 	0.51867	0.64764	0.84651	0.096
C 	C 	0.5433	0.64746	0.85116	-0.155
C 	C 	0.56686	0.6656	0.87446	0.09
C 	C 	0.5665	0.6856	0.8929	-0.158
C 	C 	0.5419	0.6847	0.8884	0.094
C 	C 	0.6204	0.5709	0.8409	0.383
C 	C 	0.59525	0.5722	0.82517	-0.122
C 	C 	0.57518	0.56851	0.83159	0.055
C 	C 	0.5519	0.56868	0.81642	-0.122
C 	C 	0.54949	0.57315	0.7953	0.052
C 	C 	0.56958	0.57711	0.78889	-0.123
C 	C 	0.5927	0.5765	0.8038	0.053
C 	C 	0.80435	0.69879	0.92222	0.092
C 	C 	0.76127	0.68845	0.90082	0.107
C 	C 	0.76049	0.68192	0.87507	-0.034
C 	C 	0.78366	0.68527	0.87527	0.12
C 	C 	0.72189	0.67442	0.86915	0.079
C 	C 	0.8318	0.7246	0.9982	0.369
C 	C 	0.85847	0.74633	0.02434	-0.112
C 	C 	0.88163	0.74536	0.02939	0.035
C 	C 	0.90647	0.76529	0.05416	-0.093
C 	C 	0.90783	0.78631	0.07314	0.026
C 	C 	0.8848	0.7877	0.0667	-0.095
C 	C 	0.8595	0.767	0.0433	0.037
C 	C 	0.0082	0.869	0.1748	0.398
C 	C 	0.98195	0.84706	0.14825	-0.165
C 	C 	0.98133	0.82784	0.12897	0.096
C 	C 	0.9567	0.80786	0.10416	-0.155
C 	C 	0.93314	0.8076	0.09874	0.09
C 	C 	0.9335	0.8264	0.1191	-0.158
C 	C 	0.9581	0.8465	0.1428	0.094
C 	C 	0.8796	0.7205	0.9505	0.383
C 	C 	0.90475	0.72992	0.97695	-0.122
C 	C 	0.92482	0.75641	0.99333	0.055
C 	C 	0.9481	0.76452	0.01678	-0.122
C 	C 	0.95051	0.74581	0.02366	0.052
C 	C 	0.93042	0.71931	0.00753	-0.123
C 	C 	0.9073	0.7111	0.9838	0.053
N 	N 	0.61288	0.3067	0.20642	-0.267
N 	N 	0.58552	0.30321	0.22797	-0.29
N 	N 	0.56246	0.32791	0.18213	-0.246
N 	N 	0.55263	0.31656	0.21277	-0.299
N 	N 	0.60463	0.31986	0.17141	-0.327
N 	N 	0.60028	0.40646	0.29358	-0.267
N 	N 	0.57524	0.35755	0.27203	-0.29
N 	N 	0.64578	0.38033	0.31787	-0.246
N 	N 	0.60379	0.33986	0.28723	-0.299
N 	N 	0.64845	0.43322	0.32859	-0.327
N 	N 	0.89972	0.1933	0.80618	-0.267
N 	N 	0.92476	0.19679	0.78231	-0.29
N 	N 	0.85422	0.17209	0.73455	-0.246
N 	N 	0.89621	0.18344	0.73607	-0.299
N 	N 	0.85155	0.18014	0.78477	-0.327
N 	N 	0.88712	0.09354	0.69382	-0.267
N 	N 	0.91448	0.14245	0.71769	-0.29
N 	N 	0.93754	0.11967	0.76545	-0.246
N 	N 	0.94737	0.16014	0.76393	-0.299
N 	N 	0.89537	0.06678	0.71523	-0.327
N 	N 	0.30618	0.89972	0.6933	-0.267
N 	N 	0.28231	0.92476	0.69679	-0.29
N 	N 	0.23455	0.85422	0.67209	-0.246
N 	N 	0.23607	0.89621	0.68344	-0.299
N 	N 	0.28477	0.85155	0.68014	-0.327
N 	N 	0.19382	0.88712	0.59354	-0.267
N 	N 	0.21769	0.91448	0.64245	-0.29
N 	N 	0.26545	0.93754	0.61967	-0.246
N 	N 	0.26393	0.94737	0.66014	-0.299
N 	N 	0.21523	0.89537	0.56678	-0.327
N 	N 	0.70642	0.61288	0.8067	-0.267
N 	N 	0.72797	0.58552	0.80321	-0.29
N 	N 	0.68213	0.56246	0.82791	-0.246
N 	N 	0.71277	0.55263	0.81656	-0.299
N 	N 	0.67141	0.60463	0.81986	-0.327
N 	N 	0.79358	0.60028	0.90646	-0.267
N 	N 	0.77203	0.57524	0.85755	-0.29
N 	N 	0.81787	0.64578	0.88033	-0.246
N 	N 	0.78723	0.60379	0.83986	-0.299
N 	N 	0.82859	0.64845	0.93322	-0.327
N 	N 	0.40646	0.79358	0.10028	-0.267
N 	N 	0.35755	0.77203	0.07524	-0.29
N 	N 	0.38033	0.81787	0.14578	-0.246
N 	N 	0.33986	0.78723	0.10379	-0.299
N 	N 	0.43322	0.82859	0.14845	-0.327
N 	N 	0.3067	0.70642	0.11288	-0.267
N 	N 	0.30321	0.72797	0.08552	-0.29
N 	N 	0.32791	0.68213	0.06246	-0.246
N 	N 	0.31656	0.71277	0.05263	-0.299
N 	N 	0.31986	0.67141	0.10463	-0.327
N 	N 	0.09354	0.19382	0.38712	-0.267
N 	N 	0.14245	0.21769	0.41448	-0.29
N 	N 	0.11967	0.26545	0.43754	-0.246
N 	N 	0.16014	0.26393	0.44737	-0.299
N 	N 	0.06678	0.21523	0.39537	-0.327
N 	N 	0.1933	0.30618	0.39972	-0.267
N 	N 	0.19679	0.28231	0.42476	-0.29
N 	N 	0.17209	0.23455	0.35422	-0.246
N 	N 	0.18344	0.23607	0.39621	-0.299
N 	N 	0.18014	0.28477	0.35155	-0.327
N 	N 	0.1933	0.88712	0.29358	-0.267
N 	N 	0.19679	0.91448	0.27203	-0.29
N 	N 	0.17209	0.93754	0.31787	-0.246
N 	N 	0.18344	0.94737	0.28723	-0.299
N 	N 	0.18014	0.89537	0.32859	-0.327
N 	N 	0.09354	0.89972	0.20642	-0.267
N 	N 	0.14245	0.92476	0.22797	-0.29
N 	N 	0.11967	0.85422	0.18213	-0.246
N 	N 	0.16014	0.89621	0.21277	-0.299
N 	N 	0.06678	0.85155	0.17141	-0.327
N 	N 	0.3067	0.60028	0.69382	-0.267
N 	N 	0.30321	0.57524	0.71769	-0.29
N 	N 	0.32791	0.64578	0.76545	-0.246
N 	N 	0.31656	0.60379	0.76393	-0.299
N 	N 	0.31986	0.64845	0.71523	-0.327
N 	N 	0.40646	0.61288	0.80618	-0.267
N 	N 	0.35755	0.58552	0.78231	-0.29
N 	N 	0.38033	0.56246	0.73455	-0.246
N 	N 	0.33986	0.55263	0.73607	-0.299
N 	N 	0.43322	0.60463	0.78477	-0.327
N 	N 	0.60028	0.19382	0.8067	-0.267
N 	N 	0.57524	0.21769	0.80321	-0.29
N 	N 	0.64578	0.26545	0.82791	-0.246
N 	N 	0.60379	0.26393	0.81656	-0.299
N 	N 	0.64845	0.21523	0.81986	-0.327
N 	N 	0.61288	0.30618	0.90646	-0.267
N 	N 	0.58552	0.28231	0.85755	-0.29
N 	N 	0.56246	0.23455	0.88033	-0.246
N 	N 	0.55263	0.23607	0.83986	-0.299
N 	N 	0.60463	0.28477	0.93322	-0.327
N 	N 	0.88712	0.79358	0.6933	-0.267
N 	N 	0.91448	0.77203	0.69679	-0.29
N 	N 	0.93754	0.81787	0.67209	-0.246
N 	N 	0.94737	0.78723	0.68344	-0.299
N 	N 	0.89537	0.82859	0.68014	-0.327
N 	N 	0.89972	0.70642	0.59354	-0.267
N 	N 	0.92476	0.72797	0.64245	-0.29
N 	N 	0.85422	0.68213	0.61967	-0.246
N 	N 	0.89621	0.71277	0.66014	-0.299
N 	N 	0.85155	0.67141	0.56678	-0.327
N 	N 	0.70642	0.09354	0.39972	-0.267
N 	N 	0.72797	0.14245	0.42476	-0.29
N 	N 	0.68213	0.11967	0.35422	-0.246
N 	N 	0.71277	0.16014	0.39621	-0.299
N 	N 	0.67141	0.06678	0.35155	-0.327
N 	N 	0.79358	0.1933	0.38712	-0.267
N 	N 	0.77203	0.19679	0.41448	-0.29
N 	N 	0.81787	0.17209	0.43754	-0.246
N 	N 	0.78723	0.18344	0.44737	-0.299
N 	N 	0.82859	0.18014	0.39537	-0.327
N 	N 	0.30618	0.40646	0.11288	-0.267
N 	N 	0.28231	0.35755	0.08552	-0.29
N 	N 	0.23455	0.38033	0.06246	-0.246
N 	N 	0.23607	0.33986	0.05263	-0.299
N 	N 	0.28477	0.43322	0.10463	-0.327
N 	N 	0.19382	0.3067	0.10028	-0.267
N 	N 	0.21769	0.30321	0.07524	-0.29
N 	N 	0.26545	0.32791	0.14578	-0.246
N 	N 	0.26393	0.31656	0.10379	-0.299
N 	N 	0.21523	0.31986	0.14845	-0.327
N 	N 	0.38712	0.6933	0.79358	-0.267
N 	N 	0.41448	0.69679	0.77203	-0.29
N 	N 	0.43754	0.67209	0.81787	-0.246
N 	N 	0.44737	0.68344	0.78723	-0.299
N 	N 	0.39537	0.68014	0.82859	-0.327
N 	N 	0.39972	0.59354	0.70642	-0.267
N 	N 	0.42476	0.64245	0.72797	-0.29
N 	N 	0.35422	0.61967	0.68213	-0.246
N 	N 	0.39621	0.66014	0.71277	-0.299
N 	N 	0.35155	0.56678	0.67141	-0.327
N 	N 	0.10028	0.8067	0.19382	-0.267
N 	N 	0.07524	0.80321	0.21769	-0.29
N 	N 	0.14578	0.82791	0.26545	-0.246
N 	N 	0.10379	0.81656	0.26393	-0.299
N 	N 	0.14845	0.81986	0.21523	-0.327
N 	N 	0.11288	0.90646	0.30618	-0.267
N 	N 	0.08552	0.85755	0.28231	-0.29
N 	N 	0.06246	0.88033	0.23455	-0.246
N 	N 	0.05263	0.83986	0.23607	-0.299
N 	N 	0.10463	0.93322	0.28477	-0.327
N 	N 	0.69382	0.10028	0.3067	-0.267
N 	N 	0.71769	0.07524	0.30321	-0.29
N 	N 	0.76545	0.14578	0.32791	-0.246
N 	N 	0.76393	0.10379	0.31656	-0.299
N 	N 	0.71523	0.14845	0.31986	-0.327
N 	N 	0.80618	0.11288	0.40646	-0.267
N 	N 	0.78231	0.08552	0.35755	-0.29
N 	N 	0.73455	0.06246	0.38033	-0.246
N 	N 	0.73607	0.05263	0.33986	-0.299
N 	N 	0.78477	0.10463	0.43322	-0.327
N 	N 	0.29358	0.38712	0.1933	-0.267
N 	N 	0.27203	0.41448	0.19679	-0.29
N 	N 	0.31787	0.43754	0.17209	-0.246
N 	N 	0.28723	0.44737	0.18344	-0.299
N 	N 	0.32859	0.39537	0.18014	-0.327
N 	N 	0.20642	0.39972	0.09354	-0.267
N 	N 	0.22797	0.42476	0.14245	-0.29
N 	N 	0.18213	0.35422	0.11967	-0.246
N 	N 	0.21277	0.39621	0.16014	-0.299
N 	N 	0.17141	0.35155	0.06678	-0.327
N 	N 	0.59354	0.20642	0.89972	-0.267
N 	N 	0.64245	0.22797	0.92476	-0.29
N 	N 	0.61967	0.18213	0.85422	-0.246
N 	N 	0.66014	0.21277	0.89621	-0.299
N 	N 	0.56678	0.17141	0.85155	-0.327
N 	N 	0.6933	0.29358	0.88712	-0.267
N 	N 	0.69679	0.27203	0.91448	-0.29
N 	N 	0.67209	0.31787	0.93754	-0.246
N 	N 	0.68344	0.28723	0.94737	-0.299
N 	N 	0.68014	0.32859	0.89537	-0.327
N 	N 	0.90646	0.80618	0.61288	-0.267
N 	N 	0.85755	0.78231	0.58552	-0.29
N 	N 	0.88033	0.73455	0.56246	-0.246
N 	N 	0.83986	0.73607	0.55263	-0.299
N 	N 	0.93322	0.78477	0.60463	-0.327
N 	N 	0.8067	0.69382	0.60028	-0.267
N 	N 	0.80321	0.71769	0.57524	-0.29
N 	N 	0.82791	0.76545	0.64578	-0.246
N 	N 	0.81656	0.76393	0.60379	-0.299
N 	N 	0.81986	0.71523	0.64845	-0.327
N 	N 	0.8067	0.11288	0.70642	-0.267
N 	N 	0.80321	0.08552	0.72797	-0.29
N 	N 	0.82791	0.06246	0.68213	-0.246
N 	N 	0.81656	0.05263	0.71277	-0.299
N 	N 	0.81986	0.10463	0.67141	-0.327
N 	N 	0.90646	0.10028	0.79358	-0.267
N 	N 	0.85755	0.07524	0.77203	-0.29
N 	N 	0.88033	0.14578	0.81787	-0.246
N 	N 	0.83986	0.10379	0.78723	-0.299
N 	N 	0.93322	0.14845	0.82859	-0.327
N 	N 	0.6933	0.39972	0.30618	-0.267
N 	N 	0.69679	0.42476	0.28231	-0.29
N 	N 	0.67209	0.35422	0.23455	-0.246
N 	N 	0.68344	0.39621	0.23607	-0.299
N 	N 	0.68014	0.35155	0.28477	-0.327
N 	N 	0.59354	0.38712	0.19382	-0.267
N 	N 	0.64245	0.41448	0.21769	-0.29
N 	N 	0.61967	0.43754	0.26545	-0.246
N 	N 	0.66014	0.44737	0.26393	-0.299
N 	N 	0.56678	0.39537	0.21523	-0.327
N 	N 	0.39972	0.80618	0.1933	-0.267
N 	N 	0.42476	0.78231	0.19679	-0.29
N 	N 	0.35422	0.73455	0.17209	-0.246
N 	N 	0.39621	0.73607	0.18344	-0.299
N 	N 	0.35155	0.78477	0.18014	-0.327
N 	N 	0.38712	0.69382	0.09354	-0.267
N 	N 	0.41448	0.71769	0.14245	-0.29
N 	N 	0.43754	0.76545	0.11967	-0.246
N 	N 	0.44737	0.76393	0.16014	-0.299
N 	N 	0.39537	0.71523	0.06678	-0.327
N 	N 	0.11288	0.20642	0.3067	-0.267
N 	N 	0.08552	0.22797	0.30321	-0.29
N 	N 	0.06246	0.18213	0.32791	-0.246
N 	N 	0.05263	0.21277	0.31656	-0.299
N 	N 	0.10463	0.17141	0.31986	-0.327
N 	N 	0.10028	0.29358	0.40646	-0.267
N 	N 	0.07524	0.27203	0.35755	-0.29
N 	N 	0.14578	0.31787	0.38033	-0.246
N 	N 	0.10379	0.28723	0.33986	-0.299
N 	N 	0.14845	0.32859	0.43322	-0.327
N 	N 	0.29358	0.90646	0.60028	-0.267
N 	N 	0.27203	0.85755	0.57524	-0.29
N 	N 	0.31787	0.88033	0.64578	-0.246
N 	N 	0.28723	0.83986	0.60379	-0.299
N 	N 	0.32859	0.93322	0.64845	-0.327
N 	N 	0.20642	0.8067	0.61288	-0.267
N 	N 	0.22797	0.80321	0.58552	-0.29
N 	N 	0.18213	0.82791	0.56246	-0.246
N 	N 	0.21277	0.81656	0.55263	-0.299
N 	N 	0.17141	0.81986	0.60463	-0.327
N 	N 	0.69382	0.59354	0.88712	-0.267
N 	N 	0.71769	0.64245	0.91448	-0.29
N 	N 	0.76545	0.61967	0.93754	-0.246
N 	N 	0.76393	0.66014	0.94737	-0.299
N 	N 	0.71523	0.56678	0.89537	-0.327
N 	N 	0.80618	0.6933	0.89972	-0.267
N 	N 	0.78231	0.69679	0.92476	-0.29
N 	N 	0.73455	0.67209	0.85422	-0.246
N 	N 	0.73607	0.68344	0.89621	-0.299
N 	N 	0.78477	0.68014	0.85155	-0.327
O 	O 	0.58376	0.27164	0.2658	-0.493
O 	O 	0.62627	0.29452	0.27663	-0.344
O 	O 	0.65936	0.12975	0.30575	-0.481
O 	O 	0.62308	0.11435	0.30793	-0.342
O 	O 	0.66754	0.3046	0.23958	-0.488
O 	O 	0.6409	0.26312	0.20678	-0.337
O 	O 	0.50584	0.31796	0.2342	-0.493
O 	O 	0.51789	0.34964	0.22337	-0.344
O 	O 	0.324	0.35361	0.19425	-0.481
O 	O 	0.30642	0.31515	0.19207	-0.342
O 	O 	0.56502	0.42796	0.26042	-0.488
O 	O 	0.55634	0.43412	0.29322	-0.337
O 	O 	0.99416	0.22836	0.81212	-0.493
O 	O 	0.98211	0.20548	0.83175	-0.344
O 	O 	0.176	0.37025	0.02961	-0.481
O 	O 	0.19358	0.38565	0.00873	-0.342
O 	O 	0.93498	0.1954	0.86294	-0.488
O 	O 	0.94366	0.23688	0.87778	-0.338
O 	O 	0.91624	0.18204	0.68788	-0.493
O 	O 	0.87373	0.15036	0.66825	-0.344
O 	O 	0.84064	0.14639	0.47039	-0.481
O 	O 	0.87692	0.18485	0.49127	-0.342
O 	O 	0.83246	0.07204	0.63706	-0.488
O 	O 	0.8591	0.06588	0.62222	-0.338
O 	O 	0.31212	0.99416	0.72836	-0.493
O 	O 	0.33175	0.98211	0.70548	-0.344
O 	O 	0.52961	0.176	0.87025	-0.481
O 	O 	0.50873	0.19358	0.88565	-0.342
O 	O 	0.36294	0.93498	0.6954	-0.488
O 	O 	0.37778	0.94366	0.73688	-0.337
O 	O 	0.18788	0.91624	0.68204	-0.493
O 	O 	0.16825	0.87373	0.65036	-0.344
O 	O 	0.97039	0.84064	0.64639	-0.481
O 	O 	0.99127	0.87692	0.68485	-0.342
O 	O 	0.13706	0.83246	0.57204	-0.488
O 	O 	0.12222	0.8591	0.56588	-0.337
O 	O 	0.7658	0.58376	0.77164	-0.493
O 	O 	0.77663	0.62627	0.79452	-0.344
O 	O 	0.80575	0.65936	0.62975	-0.481
O 	O 	0.80793	0.62308	0.61435	-0.342
O 	O 	0.73958	0.66754	0.8046	-0.488
O 	O 	0.70678	0.6409	0.76312	-0.337
O 	O 	0.7342	0.50584	0.81796	-0.493
O 	O 	0.72337	0.51789	0.84964	-0.344
O 	O 	0.69425	0.324	0.85361	-0.481
O 	O 	0.69207	0.30642	0.81515	-0.342
O 	O 	0.76042	0.56502	0.92796	-0.488
O 	O 	0.79322	0.55634	0.93412	-0.338
O 	O 	0.31796	0.7342	0.00584	-0.493
O 	O 	0.34964	0.72337	0.01789	-0.344
O 	O 	0.35361	0.69425	0.824	-0.481
O 	O 	0.31515	0.69207	0.80642	-0.342
O 	O 	0.42796	0.76042	0.06502	-0.488
O 	O 	0.43412	0.79322	0.05634	-0.337
O 	O 	0.27164	0.7658	0.08376	-0.493
O 	O 	0.29452	0.77663	0.12627	-0.344
O 	O 	0.12975	0.80575	0.15936	-0.481
O 	O 	0.11435	0.80793	0.12308	-0.342
O 	O 	0.3046	0.73958	0.16754	-0.488
O 	O 	0.26312	0.70678	0.1409	-0.337
O 	O 	0.18204	0.18788	0.41624	-0.493
O 	O 	0.15036	0.16825	0.37373	-0.344
O 	O 	0.14639	0.97039	0.34064	-0.481
O 	O 	0.18485	0.99127	0.37692	-0.342
O 	O 	0.07204	0.13706	0.33246	-0.488
O 	O 	0.06588	0.12222	0.3591	-0.338
O 	O 	0.22836	0.31212	0.49416	-0.493
O 	O 	0.20548	0.33175	0.48211	-0.344
O 	O 	0.37025	0.52961	0.676	-0.481
O 	O 	0.38565	0.50873	0.69358	-0.342
O 	O 	0.1954	0.36294	0.43498	-0.488
O 	O 	0.23688	0.37778	0.44366	-0.337
O 	O 	0.22836	0.91624	0.2342	-0.493
O 	O 	0.20548	0.87373	0.22337	-0.344
O 	O 	0.37025	0.84064	0.19425	-0.481
O 	O 	0.38565	0.87692	0.19207	-0.342
O 	O 	0.1954	0.83246	0.26042	-0.488
O 	O 	0.23688	0.8591	0.29322	-0.337
O 	O 	0.18204	0.99416	0.2658	-0.493
O 	O 	0.15036	0.98211	0.27663	-0.344
O 	O 	0.14639	0.176	0.30575	-0.481
O 	O 	0.18485	0.19358	0.30793	-0.342
O 	O 	0.07204	0.93498	0.23958	-0.488
O 	O 	0.06588	0.94366	0.20678	-0.337
O 	O 	0.27164	0.50584	0.68788	-0.493
O 	O 	0.29452	0.51789	0.66825	-0.344
O 	O 	0.12975	0.324	0.47039	-0.481
O 	O 	0.11435	0.30642	0.49127	-0.342
O 	O 	0.3046	0.56502	0.63706	-0.488
O 	O 	0.26312	0.55634	0.62222	-0.337
O 	O 	0.31796	0.58376	0.81212	-0.493
O 	O 	0.34964	0.62627	0.83175	-0.344
O 	O 	0.35361	0.65936	0.02961	-0.481
O 	O 	0.31515	0.62308	0.00873	-0.342
O 	O 	0.42796	0.66754	0.86294	-0.488
O 	O 	0.43412	0.6409	0.87778	-0.338
O 	O 	0.50584	0.18788	0.77164	-0.493
O 	O 	0.51789	0.16825	0.79452	-0.344
O 	O 	0.324	0.97039	0.62975	-0.481
O 	O 	0.30642	0.99127	0.61435	-0.342
O 	O 	0.56502	0.13706	0.8046	-0.488
O 	O 	0.55634	0.12222	0.76312	-0.338
O 	O 	0.58376	0.31212	0.81796	-0.493
O 	O 	0.62627	0.33175	0.84964	-0.344
O 	O 	0.65936	0.52961	0.85361	-0.481
O 	O 	0.62308	0.50873	0.81515	-0.342
O 	O 	0.66754	0.36294	0.92796	-0.488
O 	O 	0.6409	0.37778	0.93412	-0.338
O 	O 	0.91624	0.7342	0.72836	-0.493
O 	O 	0.87373	0.72337	0.70548	-0.344
O 	O 	0.84064	0.69425	0.87025	-0.481
O 	O 	0.87692	0.69207	0.88565	-0.342
O 	O 	0.83246	0.76042	0.6954	-0.488
O 	O 	0.8591	0.79322	0.73688	-0.337
O 	O 	0.99416	0.7658	0.68204	-0.493
O 	O 	0.98211	0.77663	0.65036	-0.344
O 	O 	0.176	0.80575	0.64639	-0.481
O 	O 	0.19358	0.80793	0.68485	-0.342
O 	O 	0.93498	0.73958	0.57204	-0.488
O 	O 	0.94366	0.70678	0.56588	-0.337
O 	O 	0.7658	0.18204	0.49416	-0.493
O 	O 	0.77663	0.15036	0.48211	-0.344
O 	O 	0.80575	0.14639	0.676	-0.481
O 	O 	0.80793	0.18485	0.69358	-0.342
O 	O 	0.73958	0.07204	0.43498	-0.488
O 	O 	0.70678	0.06588	0.44366	-0.338
O 	O 	0.7342	0.22836	0.41624	-0.493
O 	O 	0.72337	0.20548	0.37373	-0.344
O 	O 	0.69425	0.37025	0.34064	-0.481
O 	O 	0.69207	0.38565	0.37692	-0.342
O 	O 	0.76042	0.1954	0.33246	-0.488
O 	O 	0.79322	0.23688	0.3591	-0.337
O 	O 	0.31212	0.31796	0.08376	-0.493
O 	O 	0.33175	0.34964	0.12627	-0.344
O 	O 	0.52961	0.35361	0.15936	-0.481
O 	O 	0.50873	0.31515	0.12308	-0.342
O 	O 	0.36294	0.42796	0.16754	-0.488
O 	O 	0.37778	0.43412	0.1409	-0.337
O 	O 	0.18788	0.27164	0.00584	-0.493
O 	O 	0.16825	0.29452	0.01789	-0.344
O 	O 	0.97039	0.12975	0.824	-0.481
O 	O 	0.99127	0.11435	0.80642	-0.342
O 	O 	0.13706	0.3046	0.06502	-0.488
O 	O 	0.12222	0.26312	0.05634	-0.337
O 	O 	0.41624	0.72836	0.7342	-0.493
O 	O 	0.37373	0.70548	0.72337	-0.344
O 	O 	0.34064	0.87025	0.69425	-0.481
O 	O 	0.37692	0.88565	0.69207	-0.342
O 	O 	0.33246	0.6954	0.76042	-0.488
O 	O 	0.3591	0.73688	0.79322	-0.337
O 	O 	0.49416	0.68204	0.7658	-0.493
O 	O 	0.48211	0.65036	0.77663	-0.344
O 	O 	0.676	0.64639	0.80575	-0.481
O 	O 	0.69358	0.68485	0.80793	-0.342
O 	O 	0.43498	0.57204	0.73958	-0.488
O 	O 	0.44366	0.56588	0.70678	-0.337
O 	O 	0.00584	0.77164	0.18788	-0.493
O 	O 	0.01789	0.79452	0.16825	-0.344
O 	O 	0.824	0.62975	0.97039	-0.481
O 	O 	0.80642	0.61435	0.99127	-0.342
O 	O 	0.06502	0.8046	0.13706	-0.488
O 	O 	0.05634	0.76312	0.12222	-0.338
O 	O 	0.08376	0.81796	0.31212	-0.493
O 	O 	0.12627	0.84964	0.33175	-0.344
O 	O 	0.15936	0.85361	0.52961	-0.481
O 	O 	0.12308	0.81515	0.50873	-0.342
O 	O 	0.16754	0.92796	0.36294	-0.488
O 	O 	0.1409	0.93412	0.37778	-0.338
O 	O 	0.68788	0.00584	0.27164	-0.493
O 	O 	0.66825	0.01789	0.29452	-0.344
O 	O 	0.47039	0.824	0.12975	-0.481
O 	O 	0.49127	0.80642	0.11435	-0.342
O 	O 	0.63706	0.06502	0.3046	-0.488
O 	O 	0.62222	0.05634	0.26312	-0.337
O 	O 	0.81212	0.08376	0.31796	-0.493
O 	O 	0.83175	0.12627	0.34964	-0.344
O 	O 	0.02961	0.15936	0.35361	-0.481
O 	O 	0.00873	0.12308	0.31515	-0.342
O 	O 	0.86294	0.16754	0.42796	-0.488
O 	O 	0.87778	0.1409	0.43412	-0.337
O 	O 	0.2342	0.41624	0.22836	-0.493
O 	O 	0.22337	0.37373	0.20548	-0.344
O 	O 	0.19425	0.34064	0.37025	-0.481
O 	O 	0.19207	0.37692	0.38565	-0.342
O 	O 	0.26042	0.33246	0.1954	-0.488
O 	O 	0.29322	0.3591	0.23688	-0.337
O 	O 	0.2658	0.49416	0.18204	-0.493
O 	O 	0.27663	0.48211	0.15036	-0.344
O 	O 	0.30575	0.676	0.14639	-0.481
O 	O 	0.30793	0.69358	0.18485	-0.342
O 	O 	0.23958	0.43498	0.07204	-0.488
O 	O 	0.20678	0.44366	0.06588	-0.338
O 	O 	0.68204	0.2658	0.99416	-0.493
O 	O 	0.65036	0.27663	0.98211	-0.344
O 	O 	0.64639	0.30575	0.176	-0.481
O 	O 	0.68485	0.30793	0.19358	-0.342
O 	O 	0.57204	0.23958	0.93498	-0.488
O 	O 	0.56588	0.20678	0.94366	-0.337
O 	O 	0.72836	0.2342	0.91624	-0.493
O 	O 	0.70548	0.22337	0.87373	-0.344
O 	O 	0.87025	0.19425	0.84064	-0.481
O 	O 	0.88565	0.19207	0.87692	-0.342
O 	O 	0.6954	0.26042	0.83246	-0.488
O 	O 	0.73688	0.29322	0.8591	-0.337
O 	O 	0.81796	0.81212	0.58376	-0.493
O 	O 	0.84964	0.83175	0.62627	-0.344
O 	O 	0.85361	0.02961	0.65936	-0.481
O 	O 	0.81515	0.00873	0.62308	-0.342
O 	O 	0.92796	0.86294	0.66754	-0.488
O 	O 	0.93412	0.87778	0.6409	-0.338
O 	O 	0.77164	0.68788	0.50584	-0.493
O 	O 	0.79452	0.66825	0.51789	-0.344
O 	O 	0.62975	0.47039	0.324	-0.481
O 	O 	0.61435	0.49127	0.30642	-0.342
O 	O 	0.8046	0.63706	0.56502	-0.488
O 	O 	0.76312	0.62222	0.55634	-0.337
O 	O 	0.77164	0.08376	0.7658	-0.493
O 	O 	0.79452	0.12627	0.77663	-0.344
O 	O 	0.62975	0.15936	0.80575	-0.481
O 	O 	0.61435	0.12308	0.80793	-0.342
O 	O 	0.8046	0.16754	0.73958	-0.488
O 	O 	0.76312	0.1409	0.70678	-0.337
O 	O 	0.81796	0.00584	0.7342	-0.493
O 	O 	0.84964	0.01789	0.72337	-0.344
O 	O 	0.85361	0.824	0.69425	-0.481
O 	O 	0.81515	0.80642	0.69207	-0.342
O 	O 	0.92796	0.06502	0.76042	-0.488
O 	O 	0.93412	0.05634	0.79322	-0.337
O 	O 	0.72836	0.49416	0.31212	-0.493
O 	O 	0.70548	0.48211	0.33175	-0.344
O 	O 	0.87025	0.676	0.52961	-0.481
O 	O 	0.88565	0.69358	0.50873	-0.342
O 	O 	0.6954	0.43498	0.36294	-0.488
O 	O 	0.73688	0.44366	0.37778	-0.337
O 	O 	0.68204	0.41624	0.18788	-0.493
O 	O 	0.65036	0.37373	0.16825	-0.344
O 	O 	0.64639	0.34064	0.97039	-0.481
O 	O 	0.68485	0.37692	0.99127	-0.342
O 	O 	0.57204	0.33246	0.13706	-0.488
O 	O 	0.56588	0.3591	0.12222	-0.338
O 	O 	0.49416	0.81212	0.22836	-0.493
O 	O 	0.48211	0.83175	0.20548	-0.344
O 	O 	0.676	0.02961	0.37025	-0.481
O 	O 	0.69358	0.00873	0.38565	-0.342
O 	O 	0.43498	0.86294	0.1954	-0.488
O 	O 	0.44366	0.87778	0.23688	-0.338
O 	O 	0.41624	0.68788	0.18204	-0.493
O 	O 	0.37373	0.66825	0.15036	-0.344
O 	O 	0.34064	0.47039	0.14639	-0.481
O 	O 	0.37692	0.49127	0.18485	-0.342
O 	O 	0.33246	0.63706	0.07204	-0.488
O 	O 	0.3591	0.62222	0.06588	-0.338
O 	O 	0.08376	0.2658	0.27164	-0.493
O 	O 	0.12627	0.27663	0.29452	-0.344
O 	O 	0.15936	0.30575	0.12975	-0.481
O 	O 	0.12308	0.30793	0.11435	-0.342
O 	O 	0.16754	0.23958	0.3046	-0.488
O 	O 	0.1409	0.20678	0.26312	-0.337
O 	O 	0.00584	0.2342	0.31796	-0.493
O 	O 	0.01789	0.22337	0.34964	-0.344
O 	O 	0.824	0.19425	0.35361	-0.481
O 	O 	0.80642	0.19207	0.31515	-0.342
O 	O 	0.06502	0.26042	0.42796	-0.488
O 	O 	0.05634	0.29322	0.43412	-0.337
O 	O 	0.2342	0.81796	0.50584	-0.493
O 	O 	0.22337	0.84964	0.51789	-0.344
O 	O 	0.19425	0.85361	0.324	-0.481
O 	O 	0.19207	0.81515	0.30642	-0.342
O 	O 	0.26042	0.92796	0.56502	-0.488
O 	O 	0.29322	0.93412	0.55634	-0.338
O 	O 	0.2658	0.77164	0.58376	-0.493
O 	O 	0.27663	0.79452	0.62627	-0.344
O 	O 	0.30575	0.62975	0.65936	-0.481
O 	O 	0.30793	0.61435	0.62308	-0.342
O 	O 	0.23958	0.8046	0.66754	-0.488
O 	O 	0.20678	0.76312	0.6409	-0.337
O 	O 	0.68788	0.68204	0.91624	-0.493
O 	O 	0.66825	0.65036	0.87373	-0.344
O 	O 	0.47039	0.64639	0.84064	-0.481
O 	O 	0.49127	0.68485	0.87692	-0.342
O 	O 	0.63706	0.57204	0.83246	-0.488
O 	O 	0.62222	0.56588	0.8591	-0.337
O 	O 	0.81212	0.72836	0.99416	-0.493
O 	O 	0.83175	0.70548	0.98211	-0.344
O 	O 	0.02961	0.87025	0.176	-0.481
O 	O 	0.00873	0.88565	0.19358	-0.342
O 	O 	0.86294	0.6954	0.93498	-0.488
O 	O 	0.87778	0.73688	0.94366	-0.337
O 	O 	0.54382	0.29382	0.25	-0.567
O 	O 	0.95618	0.20618	0.75	-0.567
O 	O 	0.25	0.95618	0.70618	-0.567
O 	O 	0.75	0.54382	0.79382	-0.567
O 	O 	0.29382	0.75	0.04382	-0.567
O 	O 	0.20618	0.25	0.45618	-0.567
O 	O 	0.20618	0.95618	0.25	-0.567
O 	O 	0.29382	0.54382	0.75	-0.567
O 	O 	0.54382	0.25	0.79382	-0.567
O 	O 	0.95618	0.75	0.70618	-0.567
O 	O 	0.75	0.20618	0.45618	-0.567
O 	O 	0.25	0.29382	0.04382	-0.567
O 	O 	0.45618	0.70618	0.75	-0.567
O 	O 	0.04382	0.79382	0.25	-0.567
O 	O 	0.75	0.04382	0.29382	-0.567
O 	O 	0.25	0.45618	0.20618	-0.567
O 	O 	0.70618	0.25	0.95618	-0.567
O 	O 	0.79382	0.75	0.54382	-0.567
O 	O 	0.79382	0.04382	0.75	-0.567
O 	O 	0.70618	0.45618	0.25	-0.567
O 	O 	0.45618	0.75	0.20618	-0.567
O 	O 	0.04382	0.25	0.29382	-0.567
O 	O 	0.25	0.79382	0.54382	-0.567
O 	O 	0.75	0.70618	0.95618	-0.567
_end
