data_functionalizedCrystal
_audit_creation_method	'EQeq! by Chris Wilmer'
_symmetry_space_group_name_H-M	'P1'
_symmetry_Int_Tables_number	1
_symmetry_cell_setting	triclinic
loop_
_symmetry_equiv_pos_as_xyz
  x,y,z
_cell_length_a	23.4415
_cell_length_b	23.4415
_cell_length_c	23.4415
_cell_angle_alpha	83.1196
_cell_angle_beta	83.1196
_cell_angle_gamma	83.1196
loop_
_atom_site_label
_atom_site_type_symbol
_atom_site_fract_x
_atom_site_fract_y
_atom_site_fract_z
_atom_site_charge
In	In	0.64291	0.70585	0.77305	2.447
In	In	0.22691	0.29411	0.35702	2.471
In	In	0.77305	0.64291	0.70585	2.448
In	In	0.35702	0.22691	0.29411	2.471
In	In	0.70585	0.77305	0.64291	2.448
In	In	0.29411	0.35702	0.22691	2.471
P 	P 	0.64942	0.49501	0.09825	0.534
P 	P 	0.09825	0.64942	0.49501	0.534
P 	P 	0.49501	0.09825	0.64942	0.534
H 	H 	0.7008	0.6684	0.9441	-0.038
H 	H 	0.8217	0.5566	0.8726	-0.069
H 	H 	0.7222	0.6203	0.0371	0.134
H 	H 	0.8477	0.5203	0.9615	0.139
H 	H 	0.8783	0.5161	0.0446	0.024
H 	H 	0.9552	0.4705	0.1147	0.022
H 	H 	0.8017	0.4313	0.2576	0.072
H 	H 	0.897	0.4093	0.2749	0.015
H 	H 	0.7903	0.5601	0.2395	0.044
H 	H 	0.9632	0.3403	0.2666	0.152
H 	H 	0.0272	0.4544	0.1446	0.161
H 	H 	0.6022	0.4861	0.3387	0.059
H 	H 	0.6511	0.5323	0.3933	0.07
H 	H 	0.7964	0.5973	0.3264	0.059
H 	H 	0.0583	0.3061	0.284	-0.066
H 	H 	0.1193	0.4168	0.163	-0.076
H 	H 	0.5983	0.3652	0.3132	0.083
H 	H 	0.5427	0.4819	0.1807	0.101
H 	H 	0.5213	0.3075	0.3132	-0.007
H 	H 	0.4565	0.4237	0.1808	0.012
H 	H 	0.7604	0.5108	0.4627	0.077
H 	H 	0.7252	0.6763	0.3843	0.076
H 	H 	0.7641	0.5533	0.5518	-0.007
H 	H 	0.7257	0.7154	0.4749	-0.011
H 	H 	0.9441	0.7008	0.6684	-0.038
H 	H 	0.8726	0.8217	0.5566	-0.069
H 	H 	0.0371	0.7222	0.6203	0.134
H 	H 	0.9615	0.8477	0.5203	0.139
H 	H 	0.0446	0.8783	0.5161	0.024
H 	H 	0.1147	0.9552	0.4705	0.022
H 	H 	0.2576	0.8017	0.4313	0.072
H 	H 	0.2749	0.897	0.4093	0.015
H 	H 	0.2395	0.7903	0.5601	0.044
H 	H 	0.2666	0.9632	0.3403	0.152
H 	H 	0.1446	0.0272	0.4544	0.161
H 	H 	0.3387	0.6022	0.4861	0.059
H 	H 	0.3933	0.6511	0.5323	0.07
H 	H 	0.3264	0.7964	0.5973	0.059
H 	H 	0.284	0.0583	0.3061	-0.066
H 	H 	0.163	0.1193	0.4168	-0.076
H 	H 	0.3132	0.5983	0.3652	0.083
H 	H 	0.1807	0.5427	0.4819	0.101
H 	H 	0.3132	0.5213	0.3075	-0.007
H 	H 	0.1808	0.4565	0.4237	0.012
H 	H 	0.4627	0.7604	0.5108	0.077
H 	H 	0.3843	0.7252	0.6763	0.076
H 	H 	0.5518	0.7641	0.5533	-0.007
H 	H 	0.4749	0.7257	0.7154	-0.011
H 	H 	0.6684	0.9441	0.7008	-0.038
H 	H 	0.5566	0.8726	0.8217	-0.069
H 	H 	0.6203	0.0371	0.7222	0.134
H 	H 	0.5203	0.9615	0.8477	0.139
H 	H 	0.5161	0.0446	0.8783	0.024
H 	H 	0.4705	0.1147	0.9552	0.022
H 	H 	0.4313	0.2576	0.8017	0.072
H 	H 	0.4093	0.2749	0.897	0.015
H 	H 	0.5601	0.2395	0.7903	0.044
H 	H 	0.3403	0.2666	0.9632	0.152
H 	H 	0.4544	0.1446	0.0272	0.161
H 	H 	0.4861	0.3387	0.6022	0.059
H 	H 	0.5323	0.3933	0.6511	0.07
H 	H 	0.5973	0.3264	0.7964	0.059
H 	H 	0.3061	0.284	0.0583	-0.066
H 	H 	0.4168	0.163	0.1193	-0.076
H 	H 	0.3652	0.3132	0.5983	0.083
H 	H 	0.4819	0.1807	0.5427	0.101
H 	H 	0.3075	0.3132	0.5213	-0.007
H 	H 	0.4237	0.1808	0.4565	0.012
H 	H 	0.5108	0.4627	0.7604	0.077
H 	H 	0.6763	0.3843	0.7252	0.076
H 	H 	0.5533	0.5518	0.7641	-0.007
H 	H 	0.7154	0.4749	0.7257	-0.011
C 	C 	0.7481	0.6502	0.8409	0.618
C 	C 	0.7628	0.616	0.9018	-0.311
C 	C 	0.7298	0.6366	0.9478	0.191
C 	C 	0.8019	0.5715	0.9063	0.272
C 	C 	0.7422	0.6067	0.0028	-0.252
C 	C 	0.8142	0.5473	0.959	-0.337
C 	C 	0.7825	0.5586	0.007	0.259
C 	C 	0.7902	0.5271	0.0635	-0.147
C 	C 	0.8484	0.5089	0.0748	0.004
C 	C 	0.7506	0.5217	0.1106	0.209
C 	C 	0.8638	0.4812	0.127	-0.03
C 	C 	0.7586	0.4968	0.1623	-0.081
C 	C 	0.8173	0.4696	0.174	0.059
C 	C 	0.9232	0.4605	0.1414	-0.006
C 	C 	0.7129	0.4941	0.2119	-0.01
C 	C 	0.8316	0.4399	0.2278	-0.107
C 	C 	0.9329	0.4273	0.1922	-0.106
C 	C 	0.7188	0.518	0.267	-0.023
C 	C 	0.6654	0.4694	0.2073	0.135
C 	C 	0.888	0.4236	0.2369	0.027
C 	C 	0.9917	0.3993	0.2031	0.297
C 	C 	0.6761	0.5151	0.3099	0.069
C 	C 	0.7626	0.5525	0.2718	-0.021
C 	C 	0.6233	0.4616	0.2545	-0.053
C 	C 	0.9956	0.3566	0.2455	-0.373
C 	C 	0.0335	0.4234	0.1738	-0.398
C 	C 	0.631	0.4885	0.3066	-0.088
C 	C 	0.6801	0.5375	0.3618	-0.124
C 	C 	0.7658	0.5754	0.3225	-0.084
C 	C 	0.574	0.4309	0.2529	0.103
C 	C 	0.0525	0.3384	0.256	0.293
C 	C 	0.0876	0.4019	0.1868	0.31
C 	C 	0.724	0.5658	0.3667	0.038
C 	C 	0.569	0.3785	0.2884	-0.153
C 	C 	0.5361	0.4497	0.2084	-0.124
C 	C 	0.0994	0.3617	0.2305	-0.395
C 	C 	0.7342	0.59	0.4193	0.061
C 	C 	0.5214	0.3433	0.2893	0.112
C 	C 	0.4835	0.4139	0.2086	0.056
C 	C 	0.15919	0.34903	0.25181	0.663
C 	C 	0.7517	0.5511	0.4653	-0.145
C 	C 	0.7298	0.6515	0.4189	-0.146
C 	C 	0.47721	0.36131	0.25641	-0.225
C 	C 	0.7552	0.5781	0.5182	0.105
C 	C 	0.7329	0.6748	0.4732	0.113
C 	C 	0.42305	0.33465	0.25275	0.681
C 	C 	0.74634	0.63854	0.52284	-0.261
C 	C 	0.74777	0.66257	0.57697	0.675
C 	C 	0.8409	0.7481	0.6502	0.618
C 	C 	0.9018	0.7628	0.616	-0.311
C 	C 	0.9478	0.7298	0.6366	0.191
C 	C 	0.9063	0.8019	0.5715	0.272
C 	C 	0.0028	0.7422	0.6067	-0.252
C 	C 	0.959	0.8142	0.5473	-0.337
C 	C 	0.007	0.7825	0.5586	0.259
C 	C 	0.0635	0.7902	0.5271	-0.147
C 	C 	0.0748	0.8484	0.5089	0.004
C 	C 	0.1106	0.7506	0.5217	0.209
C 	C 	0.127	0.8638	0.4812	-0.03
C 	C 	0.1623	0.7586	0.4968	-0.081
C 	C 	0.174	0.8173	0.4696	0.059
C 	C 	0.1414	0.9232	0.4605	-0.006
C 	C 	0.2119	0.7129	0.4941	-0.01
C 	C 	0.2278	0.8316	0.4399	-0.107
C 	C 	0.1922	0.9329	0.4273	-0.106
C 	C 	0.267	0.7188	0.518	-0.023
C 	C 	0.2073	0.6654	0.4694	0.135
C 	C 	0.2369	0.888	0.4236	0.027
C 	C 	0.2031	0.9917	0.3993	0.297
C 	C 	0.3099	0.6761	0.5151	0.069
C 	C 	0.2718	0.7626	0.5525	-0.021
C 	C 	0.2545	0.6233	0.4616	-0.053
C 	C 	0.2455	0.9956	0.3566	-0.373
C 	C 	0.1738	0.0335	0.4234	-0.398
C 	C 	0.3066	0.631	0.4885	-0.088
C 	C 	0.3618	0.6801	0.5375	-0.124
C 	C 	0.3225	0.7658	0.5754	-0.084
C 	C 	0.2529	0.574	0.4309	0.103
C 	C 	0.256	0.0525	0.3384	0.293
C 	C 	0.1868	0.0876	0.4019	0.31
C 	C 	0.3667	0.724	0.5658	0.038
C 	C 	0.2884	0.569	0.3785	-0.153
C 	C 	0.2084	0.5361	0.4497	-0.124
C 	C 	0.2305	0.0994	0.3617	-0.395
C 	C 	0.4193	0.7342	0.59	0.061
C 	C 	0.2893	0.5214	0.3433	0.112
C 	C 	0.2086	0.4835	0.4139	0.056
C 	C 	0.25181	0.15919	0.34903	0.663
C 	C 	0.4653	0.7517	0.5511	-0.145
C 	C 	0.4189	0.7298	0.6515	-0.146
C 	C 	0.25641	0.47721	0.36131	-0.225
C 	C 	0.5182	0.7552	0.5781	0.105
C 	C 	0.4732	0.7329	0.6748	0.113
C 	C 	0.25275	0.42305	0.33465	0.681
C 	C 	0.52284	0.74634	0.63854	-0.261
C 	C 	0.57697	0.74777	0.66257	0.675
C 	C 	0.6502	0.8409	0.7481	0.618
C 	C 	0.616	0.9018	0.7628	-0.311
C 	C 	0.6366	0.9478	0.7298	0.191
C 	C 	0.5715	0.9063	0.8019	0.272
C 	C 	0.6067	0.0028	0.7422	-0.252
C 	C 	0.5473	0.959	0.8142	-0.337
C 	C 	0.5586	0.007	0.7825	0.259
C 	C 	0.5271	0.0635	0.7902	-0.147
C 	C 	0.5089	0.0748	0.8484	0.004
C 	C 	0.5217	0.1106	0.7506	0.209
C 	C 	0.4812	0.127	0.8638	-0.03
C 	C 	0.4968	0.1623	0.7586	-0.081
C 	C 	0.4696	0.174	0.8173	0.059
C 	C 	0.4605	0.1414	0.9232	-0.006
C 	C 	0.4941	0.2119	0.7129	-0.01
C 	C 	0.4399	0.2278	0.8316	-0.107
C 	C 	0.4273	0.1922	0.9329	-0.106
C 	C 	0.518	0.267	0.7188	-0.023
C 	C 	0.4694	0.2073	0.6654	0.135
C 	C 	0.4236	0.2369	0.888	0.027
C 	C 	0.3993	0.2031	0.9917	0.297
C 	C 	0.5151	0.3099	0.6761	0.069
C 	C 	0.5525	0.2718	0.7626	-0.021
C 	C 	0.4616	0.2545	0.6233	-0.053
C 	C 	0.3566	0.2455	0.9956	-0.373
C 	C 	0.4234	0.1738	0.0335	-0.398
C 	C 	0.4885	0.3066	0.631	-0.088
C 	C 	0.5375	0.3618	0.6801	-0.124
C 	C 	0.5754	0.3225	0.7658	-0.084
C 	C 	0.4309	0.2529	0.574	0.103
C 	C 	0.3384	0.256	0.0525	0.293
C 	C 	0.4019	0.1868	0.0876	0.31
C 	C 	0.5658	0.3667	0.724	0.038
C 	C 	0.3785	0.2884	0.569	-0.153
C 	C 	0.4497	0.2084	0.5361	-0.124
C 	C 	0.3617	0.2305	0.0994	-0.395
C 	C 	0.59	0.4193	0.7342	0.061
C 	C 	0.3433	0.2893	0.5214	0.112
C 	C 	0.4139	0.2086	0.4835	0.056
C 	C 	0.34903	0.25181	0.15919	0.663
C 	C 	0.5511	0.4653	0.7517	-0.145
C 	C 	0.6515	0.4189	0.7298	-0.146
C 	C 	0.36131	0.25641	0.47721	-0.225
C 	C 	0.5781	0.5182	0.7552	0.105
C 	C 	0.6748	0.4732	0.7329	0.113
C 	C 	0.33465	0.25275	0.42305	0.681
C 	C 	0.63854	0.52284	0.74634	-0.261
C 	C 	0.66257	0.57697	0.74777	0.675
O 	O 	0.70232	0.68259	0.83902	-0.72
O 	O 	0.77248	0.63636	0.61372	-0.764
O 	O 	0.72076	0.71362	0.57702	-0.717
O 	O 	0.78065	0.63505	0.79836	-0.721
O 	O 	0.69461	0.54141	0.10011	-0.276
O 	O 	0.66072	0.44892	0.15482	-0.248
O 	O 	0.59475	0.52705	0.10435	-0.267
O 	O 	0.6692	0.4626	0.0531	-0.257
O 	O 	0.16073	0.31714	0.29788	-0.734
O 	O 	0.20203	0.36536	0.21964	-0.739
O 	O 	0.42325	0.28609	0.27876	-0.744
O 	O 	0.3861	0.36293	0.22773	-0.762
O 	O 	0.83902	0.70232	0.68259	-0.72
O 	O 	0.61372	0.77248	0.63636	-0.764
O 	O 	0.57702	0.72076	0.71362	-0.717
O 	O 	0.79836	0.78065	0.63505	-0.721
O 	O 	0.10011	0.69461	0.54141	-0.276
O 	O 	0.15482	0.66072	0.44892	-0.248
O 	O 	0.10435	0.59475	0.52705	-0.267
O 	O 	0.0531	0.6692	0.4626	-0.257
O 	O 	0.29788	0.16073	0.31714	-0.734
O 	O 	0.21964	0.20203	0.36536	-0.739
O 	O 	0.27876	0.42325	0.28609	-0.744
O 	O 	0.22773	0.3861	0.36293	-0.762
O 	O 	0.68259	0.83902	0.70232	-0.72
O 	O 	0.63636	0.61372	0.77248	-0.764
O 	O 	0.71362	0.57702	0.72076	-0.717
O 	O 	0.63505	0.79836	0.78065	-0.721
O 	O 	0.54141	0.10011	0.69461	-0.276
O 	O 	0.44892	0.15482	0.66072	-0.248
O 	O 	0.52705	0.10435	0.59475	-0.267
O 	O 	0.4626	0.0531	0.6692	-0.257
O 	O 	0.31714	0.29788	0.16073	-0.734
O 	O 	0.36536	0.21964	0.20203	-0.739
O 	O 	0.28609	0.27876	0.42325	-0.744
O 	O 	0.36293	0.22773	0.3861	-0.762
O 	O 	0.70853	0.70853	0.70853	-1.314
O 	O 	0.29188	0.29188	0.29188	-1.325
_end
