data_functionalizedCrystal
_audit_creation_method	'EQeq! by Chris Wilmer'
_symmetry_space_group_name_H-M	'P1'
_symmetry_Int_Tables_number	1
_symmetry_cell_setting	triclinic
loop_
_symmetry_equiv_pos_as_xyz
  x,y,z
_cell_length_a	24.5467
_cell_length_b	24.5467
_cell_length_c	40.1403
_cell_angle_alpha	72.196
_cell_angle_beta	72.196
_cell_angle_gamma	90
loop_
_atom_site_label
_atom_site_type_symbol
_atom_site_fract_x
_atom_site_fract_y
_atom_site_fract_z
_atom_site_charge
Cu	Cu	0.23588	0.56159	0.9481	0.9
Cu	Cu	0.20977	0.96476	0.00024	0.903
Cu	Cu	0.31602	0.49031	0.9481	0.9
Cu	Cu	0.28999	0.035	0.00024	0.902
Cu	Cu	0.56159	0.31602	0.4481	0.9
Cu	Cu	0.96476	0.28999	0.50024	0.902
Cu	Cu	0.49031	0.23588	0.4481	0.9
Cu	Cu	0.035	0.20977	0.50024	0.902
H 	H 	0.1375	0.1473	0.8646	0.065
H 	H 	0.1561	0.0755	0.9126	0.037
H 	H 	0.279	0.1856	0.9128	0.033
H 	H 	0.2603	0.2573	0.865	0.057
H 	H 	0.2818	0.3962	0.8178	0.056
H 	H 	0.3086	0.4319	0.859	0.03
H 	H 	0.1677	0.5193	0.8714	0.039
H 	H 	0.1409	0.4837	0.8302	0.065
H 	H 	0.1792	0.494	0.7624	0.095
H 	H 	0.1457	0.2712	0.7562	0.058
H 	H 	0.169	0.1998	0.8034	0.048
H 	H 	0.2094	0.3213	0.8414	0.058
H 	H 	0.45	0.3726	0.535	0.035
H 	H 	0.3794	0.3869	0.585	0.066
H 	H 	0.2672	0.2712	0.5796	0.065
H 	H 	0.338	0.2571	0.5294	0.035
H 	H 	0.1349	0.2495	0.6284	0.06
H 	H 	0.1022	0.2244	0.5856	0.038
H 	H 	0.008	0.3606	0.577	0.041
H 	H 	0.0407	0.3857	0.6198	0.065
H 	H 	0.0322	0.3449	0.6856	0.091
H 	H 	0.2581	0.3778	0.6916	0.057
H 	H 	0.327	0.3551	0.646	0.048
H 	H 	0.2051	0.3286	0.603	0.063
H 	H 	0.9775	0.3311	0.742	-0.055
H 	H 	0.9785	0.398	0.7252	-0.052
H 	H 	0.9077	0.3625	0.7862	0.239
H 	H 	0.9539	0.4074	0.7854	0.249
H 	H 	0.957	0.3414	0.8028	0.249
H 	H 	0.2119	0.5452	0.7	-0.081
H 	H 	0.1502	0.5534	0.722	-0.084
H 	H 	0.1896	0.6286	0.6674	0.287
H 	H 	0.1312	0.6002	0.669	0.292
H 	H 	0.1896	0.5864	0.645	0.295
H 	H 	0.4979	0.9881	0.8646	0.064
H 	H 	0.4313	0.0119	0.9126	0.036
H 	H 	0.3082	0.9016	0.9128	0.033
H 	H 	0.3747	0.8777	0.865	0.056
H 	H 	0.4004	0.786	0.8178	0.055
H 	H 	0.3324	0.7091	0.859	0.029
H 	H 	0.4609	0.6093	0.8714	0.039
H 	H 	0.5289	0.6861	0.8302	0.065
H 	H 	0.5584	0.7436	0.7624	0.095
H 	H 	0.5981	0.9726	0.7562	0.058
H 	H 	0.5276	0.9968	0.8034	0.048
H 	H 	0.4492	0.8373	0.8414	0.058
H 	H 	0.515	0.0924	0.535	0.035
H 	H 	0.5356	0.0281	0.585	0.066
H 	H 	0.6532	0.1492	0.5796	0.065
H 	H 	0.6326	0.2135	0.5294	0.035
H 	H 	0.7367	0.1221	0.6284	0.06
H 	H 	0.8122	0.19	0.5856	0.038
H 	H 	0.915	0.0624	0.577	0.041
H 	H 	0.8395	0.9945	0.6198	0.064
H 	H 	0.7822	0.9695	0.6856	0.091
H 	H 	0.5503	0.9306	0.6916	0.056
H 	H 	0.527	0.9989	0.646	0.049
H 	H 	0.6919	0.0684	0.603	0.063
H 	H 	0.7805	0.9269	0.742	-0.055
H 	H 	0.7963	0.8768	0.7252	-0.052
H 	H 	0.8061	0.8513	0.7862	0.239
H 	H 	0.7607	0.8072	0.7854	0.249
H 	H 	0.7402	0.8558	0.8028	0.249
H 	H 	0.5881	0.7548	0.7	-0.081
H 	H 	0.6278	0.7246	0.722	-0.084
H 	H 	0.643	0.704	0.6674	0.287
H 	H 	0.6998	0.7308	0.669	0.292
H 	H 	0.6654	0.7686	0.645	0.295
H 	H 	0.1473	0.4979	0.3646	0.064
H 	H 	0.0755	0.4313	0.4126	0.036
H 	H 	0.1856	0.3082	0.4128	0.032
H 	H 	0.2573	0.3747	0.365	0.056
H 	H 	0.3962	0.4004	0.3178	0.055
H 	H 	0.4319	0.3324	0.359	0.029
H 	H 	0.5193	0.4609	0.3714	0.039
H 	H 	0.4837	0.5289	0.3302	0.065
H 	H 	0.494	0.5584	0.2624	0.095
H 	H 	0.2712	0.5981	0.2562	0.058
H 	H 	0.1998	0.5276	0.3034	0.048
H 	H 	0.3213	0.4492	0.3414	0.058
H 	H 	0.3726	0.515	0.035	0.035
H 	H 	0.3869	0.5356	0.085	0.066
H 	H 	0.2712	0.6532	0.0796	0.065
H 	H 	0.2571	0.6326	0.0294	0.035
H 	H 	0.2495	0.7367	0.1284	0.061
H 	H 	0.2244	0.8122	0.0856	0.038
H 	H 	0.3606	0.915	0.077	0.041
H 	H 	0.3857	0.8395	0.1198	0.065
H 	H 	0.3449	0.7822	0.1856	0.091
H 	H 	0.3778	0.5503	0.1916	0.057
H 	H 	0.3551	0.527	0.146	0.048
H 	H 	0.3286	0.6919	0.103	0.063
H 	H 	0.3311	0.7805	0.242	-0.055
H 	H 	0.398	0.7963	0.2252	-0.052
H 	H 	0.3625	0.8061	0.2862	0.239
H 	H 	0.4074	0.7607	0.2854	0.249
H 	H 	0.3414	0.7402	0.3028	0.249
H 	H 	0.5452	0.5881	0.2	-0.081
H 	H 	0.5534	0.6278	0.222	-0.084
H 	H 	0.6286	0.643	0.1674	0.287
H 	H 	0.6002	0.6998	0.169	0.292
H 	H 	0.5864	0.6654	0.145	0.295
H 	H 	0.9881	0.1375	0.3646	0.065
H 	H 	0.0119	0.1561	0.4126	0.035
H 	H 	0.9016	0.279	0.4128	0.032
H 	H 	0.8777	0.2603	0.365	0.056
H 	H 	0.786	0.2818	0.3178	0.055
H 	H 	0.7091	0.3086	0.359	0.029
H 	H 	0.6093	0.1677	0.3714	0.039
H 	H 	0.6861	0.1409	0.3302	0.065
H 	H 	0.7436	0.1792	0.2624	0.095
H 	H 	0.9726	0.1457	0.2562	0.058
H 	H 	0.9968	0.169	0.3034	0.048
H 	H 	0.8373	0.2094	0.3414	0.058
H 	H 	0.0924	0.45	0.035	0.035
H 	H 	0.0281	0.3794	0.085	0.066
H 	H 	0.1492	0.2672	0.0796	0.065
H 	H 	0.2135	0.338	0.0294	0.035
H 	H 	0.1221	0.1349	0.1284	0.061
H 	H 	0.19	0.1022	0.0856	0.038
H 	H 	0.0624	0.008	0.077	0.041
H 	H 	0.9945	0.0407	0.1198	0.065
H 	H 	0.9695	0.0322	0.1856	0.091
H 	H 	0.9306	0.2581	0.1916	0.057
H 	H 	0.9989	0.327	0.146	0.048
H 	H 	0.0684	0.2051	0.103	0.063
H 	H 	0.9269	0.9775	0.242	-0.055
H 	H 	0.8768	0.9785	0.2252	-0.052
H 	H 	0.8513	0.9077	0.2862	0.239
H 	H 	0.8072	0.9539	0.2854	0.248
H 	H 	0.8558	0.957	0.3028	0.249
H 	H 	0.7548	0.2119	0.2	-0.081
H 	H 	0.7246	0.1502	0.222	-0.084
H 	H 	0.704	0.1896	0.1674	0.287
H 	H 	0.7308	0.1312	0.169	0.292
H 	H 	0.7686	0.1896	0.145	0.295
C 	C 	0.19695	0.20965	0.8599	0.041
C 	C 	0.16561	0.15488	0.87424	-0.1
C 	C 	0.17685	0.11165	0.9031	0.025
C 	C 	0.21949	0.12319	0.91762	-0.099
C 	C 	0.25084	0.17796	0.90328	0.022
C 	C 	0.23959	0.22119	0.87442	-0.099
C 	C 	0.24225	0.49035	0.9033	0.327
C 	C 	0.20859	0.43629	0.81982	0.041
C 	C 	0.25918	0.42067	0.82844	-0.1
C 	C 	0.27531	0.44219	0.85322	0.021
C 	C 	0.24092	0.47932	0.86936	-0.086
C 	C 	0.19033	0.49486	0.86074	0.014
C 	C 	0.17418	0.47331	0.83598	-0.095
C 	C 	0.45028	0.29908	0.49864	0.387
C 	C 	0.15521	0.38061	0.73998	-0.043
C 	C 	0.15875	0.43895	0.7379	0.181
C 	C 	0.1769	0.45554	0.7638	-0.163
C 	C 	0.19161	0.41371	0.79178	0.023
C 	C 	0.18806	0.35536	0.79388	-0.004
C 	C 	0.16992	0.33885	0.76796	0.032
C 	C 	0.16007	0.28187	0.77246	-0.062
C 	C 	0.17168	0.23838	0.80184	-0.057
C 	C 	0.18721	0.25551	0.82778	0.018
C 	C 	0.19685	0.31135	0.8241	-0.081
C 	C 	0.40128	0.31338	0.52704	-0.104
C 	C 	0.41375	0.35251	0.54378	0.027
C 	C 	0.37111	0.36111	0.57398	-0.103
C 	C 	0.31608	0.33058	0.58744	0.045
C 	C 	0.30358	0.29145	0.5707	-0.104
C 	C 	0.34615	0.28285	0.5405	0.031
C 	C 	0.02699	0.27129	0.54962	0.357
C 	C 	0.09113	0.32013	0.62854	0.039
C 	C 	0.10969	0.27159	0.61822	-0.097
C 	C 	0.09	0.2564	0.5924	0.012
C 	C 	0.05176	0.28996	0.57688	-0.076
C 	C 	0.03325	0.33851	0.58718	0.012
C 	C 	0.05289	0.35359	0.61302	-0.095
C 	C 	0.22382	0.08512	0.95016	0.291
C 	C 	0.14524	0.36964	0.70812	-0.038
C 	C 	0.08684	0.36474	0.71052	0.177
C 	C 	0.07077	0.34814	0.68392	-0.163
C 	C 	0.11315	0.33625	0.6549	0.02
C 	C 	0.17156	0.34106	0.65248	0.002
C 	C 	0.18762	0.35775	0.6791	0.024
C 	C 	0.24715	0.36485	0.6749	-0.055
C 	C 	0.28859	0.35339	0.64722	-0.056
C 	C 	0.27153	0.33873	0.62034	0.015
C 	C 	0.21492	0.33512	0.62216	-0.085
C 	C 	0.9867	0.3677	0.7446	0.283
C 	C 	0.9474	0.37	0.7836	-0.72
C 	C 	0.1723	0.5442	0.7002	0.394
C 	C 	0.1705	0.5944	0.6674	-0.88
C 	C 	0.44315	0.93045	0.8599	0.041
C 	C 	0.46015	0.97088	0.87424	-0.1
C 	C 	0.42005	0.98525	0.9031	0.025
C 	C 	0.36289	0.95919	0.91762	-0.099
C 	C 	0.34588	0.91876	0.90328	0.022
C 	C 	0.38599	0.90439	0.87442	-0.098
C 	C 	0.35445	0.60635	0.9033	0.327
C 	C 	0.47159	0.74389	0.81982	0.041
C 	C 	0.41238	0.75089	0.82844	-0.1
C 	C 	0.37147	0.70459	0.85322	0.021
C 	C 	0.38972	0.65132	0.86936	-0.086
C 	C 	0.44893	0.6444	0.86074	0.014
C 	C 	0.48984	0.69071	0.83598	-0.095
C 	C 	0.55108	0.20228	0.49864	0.387
C 	C 	0.60481	0.87941	0.73998	-0.043
C 	C 	0.60335	0.82315	0.7379	0.181
C 	C 	0.5593	0.78066	0.7638	-0.163
C 	C 	0.51661	0.79451	0.79178	0.023
C 	C 	0.51806	0.85076	0.79388	-0.004
C 	C 	0.56212	0.89319	0.76796	0.032
C 	C 	0.56747	0.94567	0.77246	-0.062
C 	C 	0.52648	0.95978	0.80184	-0.057
C 	C 	0.48501	0.91671	0.82778	0.018
C 	C 	0.47905	0.86455	0.8241	-0.081
C 	C 	0.57168	0.15958	0.52704	-0.104
C 	C 	0.54247	0.10371	0.54378	0.027
C 	C 	0.55491	0.06491	0.57398	-0.103
C 	C 	0.59648	0.08198	0.58744	0.045
C 	C 	0.62572	0.13785	0.5707	-0.104
C 	C 	0.61335	0.17665	0.5405	0.031
C 	C 	0.92339	0.17909	0.54962	0.357
C 	C 	0.78033	0.05133	0.62854	0.039
C 	C 	0.77209	0.11019	0.61822	-0.097
C 	C 	0.8176	0.1512	0.5924	0.011
C 	C 	0.87136	0.13316	0.57688	-0.076
C 	C 	0.87957	0.07431	0.58718	0.011
C 	C 	0.83409	0.03339	0.61302	-0.094
C 	C 	0.32602	0.96472	0.95016	0.29
C 	C 	0.64664	0.92224	0.70812	-0.038
C 	C 	0.70264	0.92474	0.71052	0.177
C 	C 	0.74531	0.96794	0.68392	-0.163
C 	C 	0.73195	0.00885	0.6549	0.02
C 	C 	0.67596	0.00646	0.65248	0.002
C 	C 	0.63328	0.96315	0.6791	0.024
C 	C 	0.57795	0.96025	0.6749	-0.055
C 	C 	0.56419	0.99939	0.64722	-0.056
C 	C 	0.60813	0.04093	0.62034	0.016
C 	C 	0.66292	0.04272	0.62216	-0.085
C 	C 	0.7687	0.8877	0.7446	0.283
C 	C 	0.769	0.8464	0.7836	-0.719
C 	C 	0.6275	0.7556	0.7002	0.394
C 	C 	0.6621	0.7382	0.6674	-0.88
C 	C 	0.20965	0.44315	0.3599	0.041
C 	C 	0.15488	0.46015	0.37424	-0.1
C 	C 	0.11165	0.42005	0.4031	0.025
C 	C 	0.12319	0.36289	0.41762	-0.099
C 	C 	0.17796	0.34588	0.40328	0.022
C 	C 	0.22119	0.38599	0.37442	-0.099
C 	C 	0.49035	0.35445	0.4033	0.327
C 	C 	0.43629	0.47159	0.31982	0.041
C 	C 	0.42067	0.41238	0.32844	-0.1
C 	C 	0.44219	0.37147	0.35322	0.021
C 	C 	0.47932	0.38972	0.36936	-0.087
C 	C 	0.49486	0.44893	0.36074	0.014
C 	C 	0.47331	0.48984	0.33598	-0.095
C 	C 	0.29908	0.55108	0.99864	0.387
C 	C 	0.38061	0.60481	0.23998	-0.043
C 	C 	0.43895	0.60335	0.2379	0.181
C 	C 	0.45554	0.5593	0.2638	-0.163
C 	C 	0.41371	0.51661	0.29178	0.023
C 	C 	0.35536	0.51806	0.29388	-0.004
C 	C 	0.33885	0.56212	0.26796	0.032
C 	C 	0.28187	0.56747	0.27246	-0.062
C 	C 	0.23838	0.52648	0.30184	-0.057
C 	C 	0.25551	0.48501	0.32778	0.018
C 	C 	0.31135	0.47905	0.3241	-0.081
C 	C 	0.31338	0.57168	0.02704	-0.104
C 	C 	0.35251	0.54247	0.04378	0.027
C 	C 	0.36111	0.55491	0.07398	-0.103
C 	C 	0.33058	0.59648	0.08744	0.045
C 	C 	0.29145	0.62572	0.0707	-0.104
C 	C 	0.28285	0.61335	0.0405	0.031
C 	C 	0.27129	0.92339	0.04962	0.357
C 	C 	0.32013	0.78033	0.12854	0.039
C 	C 	0.27159	0.77209	0.11822	-0.097
C 	C 	0.2564	0.8176	0.0924	0.012
C 	C 	0.28996	0.87136	0.07688	-0.076
C 	C 	0.33851	0.87957	0.08718	0.012
C 	C 	0.35359	0.83409	0.11302	-0.095
C 	C 	0.08512	0.32602	0.45016	0.29
C 	C 	0.36964	0.64664	0.20812	-0.038
C 	C 	0.36474	0.70264	0.21052	0.177
C 	C 	0.34814	0.74531	0.18392	-0.163
C 	C 	0.33625	0.73195	0.1549	0.02
C 	C 	0.34106	0.67596	0.15248	0.002
C 	C 	0.35775	0.63328	0.1791	0.024
C 	C 	0.36485	0.57795	0.1749	-0.055
C 	C 	0.35339	0.56419	0.14722	-0.056
C 	C 	0.33873	0.60813	0.12034	0.015
C 	C 	0.33512	0.66292	0.12216	-0.085
C 	C 	0.3677	0.7687	0.2446	0.283
C 	C 	0.37	0.769	0.2836	-0.719
C 	C 	0.5442	0.6275	0.2002	0.394
C 	C 	0.5944	0.6621	0.1674	-0.88
C 	C 	0.93045	0.19695	0.3599	0.041
C 	C 	0.97088	0.16561	0.37424	-0.1
C 	C 	0.98525	0.17685	0.4031	0.026
C 	C 	0.95919	0.21949	0.41762	-0.099
C 	C 	0.91876	0.25084	0.40328	0.022
C 	C 	0.90439	0.23959	0.37442	-0.099
C 	C 	0.60635	0.24225	0.4033	0.327
C 	C 	0.74389	0.20859	0.31982	0.041
C 	C 	0.75089	0.25918	0.32844	-0.1
C 	C 	0.70459	0.27531	0.35322	0.021
C 	C 	0.65132	0.24092	0.36936	-0.087
C 	C 	0.6444	0.19033	0.36074	0.014
C 	C 	0.69071	0.17418	0.33598	-0.095
C 	C 	0.20228	0.45028	0.99864	0.387
C 	C 	0.87941	0.15521	0.23998	-0.043
C 	C 	0.82315	0.15875	0.2379	0.181
C 	C 	0.78066	0.1769	0.2638	-0.163
C 	C 	0.79451	0.19161	0.29178	0.023
C 	C 	0.85076	0.18806	0.29388	-0.004
C 	C 	0.89319	0.16992	0.26796	0.032
C 	C 	0.94567	0.16007	0.27246	-0.062
C 	C 	0.95978	0.17168	0.30184	-0.057
C 	C 	0.91671	0.18721	0.32778	0.017
C 	C 	0.86455	0.19685	0.3241	-0.081
C 	C 	0.15958	0.40128	0.02704	-0.104
C 	C 	0.10371	0.41375	0.04378	0.028
C 	C 	0.06491	0.37111	0.07398	-0.104
C 	C 	0.08198	0.31608	0.08744	0.045
C 	C 	0.13785	0.30358	0.0707	-0.104
C 	C 	0.17665	0.34615	0.0405	0.031
C 	C 	0.17909	0.02699	0.04962	0.357
C 	C 	0.05133	0.09113	0.12854	0.04
C 	C 	0.11019	0.10969	0.11822	-0.097
C 	C 	0.1512	0.09	0.0924	0.012
C 	C 	0.13316	0.05176	0.07688	-0.076
C 	C 	0.07431	0.03325	0.08718	0.013
C 	C 	0.03339	0.05289	0.11302	-0.096
C 	C 	0.96472	0.22382	0.45016	0.291
C 	C 	0.92224	0.14524	0.20812	-0.038
C 	C 	0.92474	0.08684	0.21052	0.177
C 	C 	0.96794	0.07077	0.18392	-0.162
C 	C 	0.00885	0.11315	0.1549	0.019
C 	C 	0.00646	0.17156	0.15248	0.001
C 	C 	0.96315	0.18762	0.1791	0.024
C 	C 	0.96025	0.24715	0.1749	-0.055
C 	C 	0.99939	0.28859	0.14722	-0.055
C 	C 	0.04093	0.27153	0.12034	0.015
C 	C 	0.04272	0.21492	0.12216	-0.084
C 	C 	0.8877	0.9867	0.2446	0.283
C 	C 	0.8464	0.9474	0.2836	-0.719
C 	C 	0.7556	0.1723	0.2002	0.394
C 	C 	0.7382	0.1705	0.1674	-0.88
O 	O 	0.22299	0.53139	0.91142	-0.413
O 	O 	0.49727	0.32797	0.48826	-0.422
O 	O 	0.19894	0.03014	0.96132	-0.368
O 	O 	0.99228	0.30488	0.53824	-0.405
O 	O 	0.05115	0.23405	0.5387	-0.425
O 	O 	0.26721	0.09141	0.96298	-0.376
O 	O 	0.29277	0.47281	0.91026	-0.376
O 	O 	0.43409	0.26349	0.48722	-0.419
O 	O 	0.15342	0.48202	0.70736	-0.275
O 	O 	0.04947	0.37487	0.74026	-0.259
O 	O 	0.36559	0.55719	0.91142	-0.413
O 	O 	0.51447	0.18377	0.48826	-0.422
O 	O 	0.33974	0.00854	0.96132	-0.368
O 	O 	0.96948	0.15688	0.53824	-0.405
O 	O 	0.91015	0.22725	0.5387	-0.425
O 	O 	0.26981	0.94561	0.96298	-0.376
O 	O 	0.29697	0.61693	0.91026	-0.376
O 	O 	0.57869	0.24929	0.48722	-0.419
O 	O 	0.63922	0.81062	0.70736	-0.275
O 	O 	0.71027	0.88487	0.74026	-0.259
O 	O 	0.53139	0.36559	0.41142	-0.413
O 	O 	0.32797	0.51447	0.98826	-0.422
O 	O 	0.03014	0.33974	0.46132	-0.368
O 	O 	0.30488	0.96948	0.03824	-0.405
O 	O 	0.23405	0.91015	0.0387	-0.425
O 	O 	0.09141	0.26981	0.46298	-0.376
O 	O 	0.47281	0.29697	0.41026	-0.376
O 	O 	0.26349	0.57869	0.98722	-0.418
O 	O 	0.48202	0.63922	0.20736	-0.275
O 	O 	0.37487	0.71027	0.24026	-0.258
O 	O 	0.55719	0.22299	0.41142	-0.413
O 	O 	0.18377	0.49727	0.98826	-0.422
O 	O 	0.00854	0.19894	0.46132	-0.368
O 	O 	0.15688	0.99228	0.03824	-0.404
O 	O 	0.22725	0.05115	0.0387	-0.425
O 	O 	0.94561	0.26721	0.46298	-0.376
O 	O 	0.61693	0.29277	0.41026	-0.376
O 	O 	0.24929	0.43409	0.98722	-0.418
O 	O 	0.81062	0.15342	0.20736	-0.275
O 	O 	0.88487	0.04947	0.24026	-0.258
Cu	Cu	0.76412	0.43841	0.0519	0.899
Cu	Cu	0.79023	0.03524	0.99976	0.902
Cu	Cu	0.68398	0.50969	0.0519	0.899
Cu	Cu	0.71001	0.965	0.99976	0.901
Cu	Cu	0.43841	0.68398	0.5519	0.899
Cu	Cu	0.03524	0.71001	0.49976	0.901
Cu	Cu	0.50969	0.76412	0.5519	0.899
Cu	Cu	0.965	0.79023	0.49976	0.901
H 	H 	0.8625	0.8527	0.1354	0.064
H 	H 	0.8439	0.9245	0.0874	0.036
H 	H 	0.721	0.8144	0.0872	0.032
H 	H 	0.7397	0.7427	0.135	0.056
H 	H 	0.7182	0.6038	0.1822	0.055
H 	H 	0.6914	0.5681	0.141	0.029
H 	H 	0.8323	0.4807	0.1286	0.039
H 	H 	0.8591	0.5163	0.1698	0.065
H 	H 	0.8208	0.506	0.2376	0.095
H 	H 	0.8543	0.7288	0.2438	0.058
H 	H 	0.831	0.8002	0.1966	0.048
H 	H 	0.7906	0.6787	0.1586	0.058
H 	H 	0.55	0.6274	0.465	0.035
H 	H 	0.6206	0.6131	0.415	0.066
H 	H 	0.7328	0.7288	0.4204	0.065
H 	H 	0.662	0.7429	0.4706	0.035
H 	H 	0.8651	0.7505	0.3716	0.06
H 	H 	0.8978	0.7756	0.4144	0.038
H 	H 	0.992	0.6394	0.423	0.041
H 	H 	0.9593	0.6143	0.3802	0.065
H 	H 	0.9678	0.6551	0.3144	0.091
H 	H 	0.7419	0.6222	0.3084	0.057
H 	H 	0.673	0.6449	0.354	0.048
H 	H 	0.7949	0.6714	0.397	0.063
H 	H 	0.0225	0.6689	0.258	-0.055
H 	H 	0.0215	0.602	0.2748	-0.052
H 	H 	0.0923	0.6375	0.2138	0.239
H 	H 	0.0461	0.5926	0.2146	0.249
H 	H 	0.043	0.6586	0.1972	0.249
H 	H 	0.7881	0.4548	0.3	-0.081
H 	H 	0.8498	0.4466	0.278	-0.084
H 	H 	0.8104	0.3714	0.3326	0.287
H 	H 	0.8688	0.3998	0.331	0.292
H 	H 	0.8104	0.4136	0.355	0.295
H 	H 	0.5021	0.0119	0.1354	0.064
H 	H 	0.5687	0.9881	0.0874	0.036
H 	H 	0.6918	0.0984	0.0872	0.033
H 	H 	0.6253	0.1223	0.135	0.056
H 	H 	0.5996	0.214	0.1822	0.055
H 	H 	0.6676	0.2909	0.141	0.029
H 	H 	0.5391	0.3907	0.1286	0.039
H 	H 	0.4711	0.3139	0.1698	0.065
H 	H 	0.4416	0.2564	0.2376	0.095
H 	H 	0.4019	0.0274	0.2438	0.058
H 	H 	0.4724	0.0032	0.1966	0.048
H 	H 	0.5508	0.1627	0.1586	0.058
H 	H 	0.485	0.9076	0.465	0.035
H 	H 	0.4644	0.9719	0.415	0.066
H 	H 	0.3468	0.8508	0.4204	0.065
H 	H 	0.3674	0.7865	0.4706	0.035
H 	H 	0.2633	0.8779	0.3716	0.06
H 	H 	0.1878	0.81	0.4144	0.038
H 	H 	0.085	0.9376	0.423	0.041
H 	H 	0.1605	0.0055	0.3802	0.064
H 	H 	0.2178	0.0305	0.3144	0.091
H 	H 	0.4497	0.0694	0.3084	0.056
H 	H 	0.473	0.0011	0.354	0.049
H 	H 	0.3081	0.9316	0.397	0.063
H 	H 	0.2195	0.0731	0.258	-0.055
H 	H 	0.2037	0.1232	0.2748	-0.052
H 	H 	0.1939	0.1487	0.2138	0.239
H 	H 	0.2393	0.1928	0.2146	0.249
H 	H 	0.2598	0.1442	0.1972	0.249
H 	H 	0.4119	0.2452	0.3	-0.081
H 	H 	0.3722	0.2754	0.278	-0.084
H 	H 	0.357	0.296	0.3326	0.287
H 	H 	0.3002	0.2692	0.331	0.292
H 	H 	0.3346	0.2314	0.355	0.295
H 	H 	0.8527	0.5021	0.6354	0.064
H 	H 	0.9245	0.5687	0.5874	0.036
H 	H 	0.8144	0.6918	0.5872	0.032
H 	H 	0.7427	0.6253	0.635	0.056
H 	H 	0.6038	0.5996	0.6822	0.055
H 	H 	0.5681	0.6676	0.641	0.029
H 	H 	0.4807	0.5391	0.6286	0.039
H 	H 	0.5163	0.4711	0.6698	0.065
H 	H 	0.506	0.4416	0.7376	0.095
H 	H 	0.7288	0.4019	0.7438	0.058
H 	H 	0.8002	0.4724	0.6966	0.048
H 	H 	0.6787	0.5508	0.6586	0.058
H 	H 	0.6274	0.485	0.965	0.035
H 	H 	0.6131	0.4644	0.915	0.066
H 	H 	0.7288	0.3468	0.9204	0.065
H 	H 	0.7429	0.3674	0.9706	0.035
H 	H 	0.7505	0.2633	0.8716	0.061
H 	H 	0.7756	0.1878	0.9144	0.038
H 	H 	0.6394	0.085	0.923	0.041
H 	H 	0.6143	0.1605	0.8802	0.065
H 	H 	0.6551	0.2178	0.8144	0.091
H 	H 	0.6222	0.4497	0.8084	0.057
H 	H 	0.6449	0.473	0.854	0.048
H 	H 	0.6714	0.3081	0.897	0.063
H 	H 	0.6689	0.2195	0.758	-0.055
H 	H 	0.602	0.2037	0.7748	-0.052
H 	H 	0.6375	0.1939	0.7138	0.239
H 	H 	0.5926	0.2393	0.7146	0.249
H 	H 	0.6586	0.2598	0.6972	0.249
H 	H 	0.4548	0.4119	0.8	-0.081
H 	H 	0.4466	0.3722	0.778	-0.084
H 	H 	0.3714	0.357	0.8326	0.287
H 	H 	0.3998	0.3002	0.831	0.292
H 	H 	0.4136	0.3346	0.855	0.295
H 	H 	0.0119	0.8625	0.6354	0.065
H 	H 	0.9881	0.8439	0.5874	0.035
H 	H 	0.0984	0.721	0.5872	0.032
H 	H 	0.1223	0.7397	0.635	0.056
H 	H 	0.214	0.7182	0.6822	0.055
H 	H 	0.2909	0.6914	0.641	0.029
H 	H 	0.3907	0.8323	0.6286	0.039
H 	H 	0.3139	0.8591	0.6698	0.065
H 	H 	0.2564	0.8208	0.7376	0.095
H 	H 	0.0274	0.8543	0.7438	0.058
H 	H 	0.0032	0.831	0.6966	0.048
H 	H 	0.1627	0.7906	0.6586	0.058
H 	H 	0.9076	0.55	0.965	0.035
H 	H 	0.9719	0.6206	0.915	0.066
H 	H 	0.8508	0.7328	0.9204	0.065
H 	H 	0.7865	0.662	0.9706	0.035
H 	H 	0.8779	0.8651	0.8716	0.061
H 	H 	0.81	0.8978	0.9144	0.038
H 	H 	0.9376	0.992	0.923	0.041
H 	H 	0.0055	0.9593	0.8802	0.065
H 	H 	0.0305	0.9678	0.8144	0.091
H 	H 	0.0694	0.7419	0.8084	0.057
H 	H 	0.0011	0.673	0.854	0.048
H 	H 	0.9316	0.7949	0.897	0.063
H 	H 	0.0731	0.0225	0.758	-0.055
H 	H 	0.1232	0.0215	0.7748	-0.052
H 	H 	0.1487	0.0923	0.7138	0.239
H 	H 	0.1928	0.0461	0.7146	0.248
H 	H 	0.1442	0.043	0.6972	0.249
H 	H 	0.2452	0.7881	0.8	-0.081
H 	H 	0.2754	0.8498	0.778	-0.084
H 	H 	0.296	0.8104	0.8326	0.287
H 	H 	0.2692	0.8688	0.831	0.292
H 	H 	0.2314	0.8104	0.855	0.295
C 	C 	0.80305	0.79035	0.1401	0.041
C 	C 	0.83439	0.84512	0.12576	-0.1
C 	C 	0.82315	0.88835	0.0969	0.025
C 	C 	0.78051	0.87681	0.08238	-0.099
C 	C 	0.74916	0.82204	0.09672	0.022
C 	C 	0.76041	0.77881	0.12558	-0.099
C 	C 	0.75775	0.50965	0.0967	0.327
C 	C 	0.79141	0.56371	0.18018	0.041
C 	C 	0.74082	0.57933	0.17156	-0.1
C 	C 	0.72469	0.55781	0.14678	0.021
C 	C 	0.75908	0.52068	0.13064	-0.086
C 	C 	0.80967	0.50514	0.13926	0.014
C 	C 	0.82582	0.52669	0.16402	-0.095
C 	C 	0.54972	0.70092	0.50136	0.387
C 	C 	0.84479	0.61939	0.26002	-0.043
C 	C 	0.84125	0.56105	0.2621	0.181
C 	C 	0.8231	0.54446	0.2362	-0.163
C 	C 	0.80839	0.58629	0.20822	0.023
C 	C 	0.81194	0.64464	0.20612	-0.004
C 	C 	0.83008	0.66115	0.23204	0.032
C 	C 	0.83993	0.71813	0.22754	-0.062
C 	C 	0.82832	0.76162	0.19816	-0.057
C 	C 	0.81279	0.74449	0.17222	0.018
C 	C 	0.80315	0.68865	0.1759	-0.081
C 	C 	0.59872	0.68662	0.47296	-0.104
C 	C 	0.58625	0.64749	0.45622	0.027
C 	C 	0.62889	0.63889	0.42602	-0.103
C 	C 	0.68392	0.66942	0.41256	0.045
C 	C 	0.69642	0.70855	0.4293	-0.104
C 	C 	0.65385	0.71715	0.4595	0.031
C 	C 	0.97301	0.72871	0.45038	0.357
C 	C 	0.90887	0.67987	0.37146	0.039
C 	C 	0.89031	0.72841	0.38178	-0.097
C 	C 	0.91	0.7436	0.4076	0.012
C 	C 	0.94824	0.71004	0.42312	-0.076
C 	C 	0.96675	0.66149	0.41282	0.012
C 	C 	0.94711	0.64641	0.38698	-0.095
C 	C 	0.77618	0.91488	0.04984	0.291
C 	C 	0.85476	0.63036	0.29188	-0.038
C 	C 	0.91316	0.63526	0.28948	0.177
C 	C 	0.92923	0.65186	0.31608	-0.163
C 	C 	0.88685	0.66375	0.3451	0.02
C 	C 	0.82844	0.65894	0.34752	0.002
C 	C 	0.81238	0.64225	0.3209	0.024
C 	C 	0.75285	0.63515	0.3251	-0.055
C 	C 	0.71141	0.64661	0.35278	-0.056
C 	C 	0.72847	0.66127	0.37966	0.015
C 	C 	0.78508	0.66488	0.37784	-0.085
C 	C 	0.0133	0.6323	0.2554	0.283
C 	C 	0.0526	0.63	0.2164	-0.72
C 	C 	0.8277	0.4558	0.2998	0.394
C 	C 	0.8295	0.4056	0.3326	-0.88
C 	C 	0.55685	0.06955	0.1401	0.041
C 	C 	0.53985	0.02912	0.12576	-0.1
C 	C 	0.57995	0.01475	0.0969	0.025
C 	C 	0.63711	0.04081	0.08238	-0.099
C 	C 	0.65412	0.08124	0.09672	0.022
C 	C 	0.61401	0.09561	0.12558	-0.098
C 	C 	0.64555	0.39365	0.0967	0.327
C 	C 	0.52841	0.25611	0.18018	0.041
C 	C 	0.58762	0.24911	0.17156	-0.1
C 	C 	0.62853	0.29541	0.14678	0.021
C 	C 	0.61028	0.34868	0.13064	-0.086
C 	C 	0.55107	0.3556	0.13926	0.014
C 	C 	0.51016	0.30929	0.16402	-0.095
C 	C 	0.44892	0.79772	0.50136	0.387
C 	C 	0.39519	0.12059	0.26002	-0.043
C 	C 	0.39665	0.17685	0.2621	0.181
C 	C 	0.4407	0.21934	0.2362	-0.163
C 	C 	0.48339	0.20549	0.20822	0.023
C 	C 	0.48194	0.14924	0.20612	-0.004
C 	C 	0.43788	0.10681	0.23204	0.032
C 	C 	0.43253	0.05433	0.22754	-0.062
C 	C 	0.47352	0.04022	0.19816	-0.057
C 	C 	0.51499	0.08329	0.17222	0.018
C 	C 	0.52095	0.13545	0.1759	-0.081
C 	C 	0.42832	0.84042	0.47296	-0.104
C 	C 	0.45753	0.89629	0.45622	0.027
C 	C 	0.44509	0.93509	0.42602	-0.103
C 	C 	0.40352	0.91802	0.41256	0.045
C 	C 	0.37428	0.86215	0.4293	-0.104
C 	C 	0.38665	0.82335	0.4595	0.031
C 	C 	0.07661	0.82091	0.45038	0.357
C 	C 	0.21967	0.94867	0.37146	0.039
C 	C 	0.22791	0.88981	0.38178	-0.097
C 	C 	0.1824	0.8488	0.4076	0.011
C 	C 	0.12864	0.86684	0.42312	-0.076
C 	C 	0.12043	0.92569	0.41282	0.011
C 	C 	0.16591	0.96661	0.38698	-0.094
C 	C 	0.67398	0.03528	0.04984	0.29
C 	C 	0.35336	0.07776	0.29188	-0.038
C 	C 	0.29736	0.07526	0.28948	0.177
C 	C 	0.25469	0.03206	0.31608	-0.163
C 	C 	0.26805	0.99115	0.3451	0.02
C 	C 	0.32404	0.99354	0.34752	0.002
C 	C 	0.36672	0.03685	0.3209	0.024
C 	C 	0.42205	0.03975	0.3251	-0.055
C 	C 	0.43581	0.00061	0.35278	-0.056
C 	C 	0.39187	0.95907	0.37966	0.016
C 	C 	0.33708	0.95728	0.37784	-0.085
C 	C 	0.2313	0.1123	0.2554	0.283
C 	C 	0.231	0.1536	0.2164	-0.719
C 	C 	0.3725	0.2444	0.2998	0.394
C 	C 	0.3379	0.2618	0.3326	-0.88
C 	C 	0.79035	0.55685	0.6401	0.041
C 	C 	0.84512	0.53985	0.62576	-0.1
C 	C 	0.88835	0.57995	0.5969	0.025
C 	C 	0.87681	0.63711	0.58238	-0.099
C 	C 	0.82204	0.65412	0.59672	0.022
C 	C 	0.77881	0.61401	0.62558	-0.099
C 	C 	0.50965	0.64555	0.5967	0.327
C 	C 	0.56371	0.52841	0.68018	0.041
C 	C 	0.57933	0.58762	0.67156	-0.1
C 	C 	0.55781	0.62853	0.64678	0.021
C 	C 	0.52068	0.61028	0.63064	-0.087
C 	C 	0.50514	0.55107	0.63926	0.014
C 	C 	0.52669	0.51016	0.66402	-0.095
C 	C 	0.70092	0.44892	0.00136	0.387
C 	C 	0.61939	0.39519	0.76002	-0.043
C 	C 	0.56105	0.39665	0.7621	0.181
C 	C 	0.54446	0.4407	0.7362	-0.163
C 	C 	0.58629	0.48339	0.70822	0.023
C 	C 	0.64464	0.48194	0.70612	-0.004
C 	C 	0.66115	0.43788	0.73204	0.032
C 	C 	0.71813	0.43253	0.72754	-0.062
C 	C 	0.76162	0.47352	0.69816	-0.057
C 	C 	0.74449	0.51499	0.67222	0.018
C 	C 	0.68865	0.52095	0.6759	-0.081
C 	C 	0.68662	0.42832	0.97296	-0.104
C 	C 	0.64749	0.45753	0.95622	0.027
C 	C 	0.63889	0.44509	0.92602	-0.103
C 	C 	0.66942	0.40352	0.91256	0.045
C 	C 	0.70855	0.37428	0.9293	-0.104
C 	C 	0.71715	0.38665	0.9595	0.031
C 	C 	0.72871	0.07661	0.95038	0.357
C 	C 	0.67987	0.21967	0.87146	0.039
C 	C 	0.72841	0.22791	0.88178	-0.097
C 	C 	0.7436	0.1824	0.9076	0.012
C 	C 	0.71004	0.12864	0.92312	-0.076
C 	C 	0.66149	0.12043	0.91282	0.012
C 	C 	0.64641	0.16591	0.88698	-0.095
C 	C 	0.91488	0.67398	0.54984	0.29
C 	C 	0.63036	0.35336	0.79188	-0.038
C 	C 	0.63526	0.29736	0.78948	0.177
C 	C 	0.65186	0.25469	0.81608	-0.163
C 	C 	0.66375	0.26805	0.8451	0.02
C 	C 	0.65894	0.32404	0.84752	0.002
C 	C 	0.64225	0.36672	0.8209	0.024
C 	C 	0.63515	0.42205	0.8251	-0.055
C 	C 	0.64661	0.43581	0.85278	-0.056
C 	C 	0.66127	0.39187	0.87966	0.015
C 	C 	0.66488	0.33708	0.87784	-0.085
C 	C 	0.6323	0.2313	0.7554	0.283
C 	C 	0.63	0.231	0.7164	-0.719
C 	C 	0.4558	0.3725	0.7998	0.394
C 	C 	0.4056	0.3379	0.8326	-0.88
C 	C 	0.06955	0.80305	0.6401	0.041
C 	C 	0.02912	0.83439	0.62576	-0.1
C 	C 	0.01475	0.82315	0.5969	0.026
C 	C 	0.04081	0.78051	0.58238	-0.099
C 	C 	0.08124	0.74916	0.59672	0.022
C 	C 	0.09561	0.76041	0.62558	-0.099
C 	C 	0.39365	0.75775	0.5967	0.327
C 	C 	0.25611	0.79141	0.68018	0.041
C 	C 	0.24911	0.74082	0.67156	-0.1
C 	C 	0.29541	0.72469	0.64678	0.021
C 	C 	0.34868	0.75908	0.63064	-0.087
C 	C 	0.3556	0.80967	0.63926	0.014
C 	C 	0.30929	0.82582	0.66402	-0.095
C 	C 	0.79772	0.54972	0.00136	0.387
C 	C 	0.12059	0.84479	0.76002	-0.043
C 	C 	0.17685	0.84125	0.7621	0.181
C 	C 	0.21934	0.8231	0.7362	-0.163
C 	C 	0.20549	0.80839	0.70822	0.023
C 	C 	0.14924	0.81194	0.70612	-0.004
C 	C 	0.10681	0.83008	0.73204	0.032
C 	C 	0.05433	0.83993	0.72754	-0.062
C 	C 	0.04022	0.82832	0.69816	-0.057
C 	C 	0.08329	0.81279	0.67222	0.017
C 	C 	0.13545	0.80315	0.6759	-0.081
C 	C 	0.84042	0.59872	0.97296	-0.104
C 	C 	0.89629	0.58625	0.95622	0.028
C 	C 	0.93509	0.62889	0.92602	-0.104
C 	C 	0.91802	0.68392	0.91256	0.045
C 	C 	0.86215	0.69642	0.9293	-0.104
C 	C 	0.82335	0.65385	0.9595	0.031
C 	C 	0.82091	0.97301	0.95038	0.357
C 	C 	0.94867	0.90887	0.87146	0.04
C 	C 	0.88981	0.89031	0.88178	-0.097
C 	C 	0.8488	0.91	0.9076	0.012
C 	C 	0.86684	0.94824	0.92312	-0.076
C 	C 	0.92569	0.96675	0.91282	0.013
C 	C 	0.96661	0.94711	0.88698	-0.096
C 	C 	0.03528	0.77618	0.54984	0.291
C 	C 	0.07776	0.85476	0.79188	-0.038
C 	C 	0.07526	0.91316	0.78948	0.177
C 	C 	0.03206	0.92923	0.81608	-0.162
C 	C 	0.99115	0.88685	0.8451	0.019
C 	C 	0.99354	0.82844	0.84752	0.001
C 	C 	0.03685	0.81238	0.8209	0.024
C 	C 	0.03975	0.75285	0.8251	-0.055
C 	C 	0.00061	0.71141	0.85278	-0.055
C 	C 	0.95907	0.72847	0.87966	0.015
C 	C 	0.95728	0.78508	0.87784	-0.084
C 	C 	0.1123	0.0133	0.7554	0.283
C 	C 	0.1536	0.0526	0.7164	-0.719
C 	C 	0.2444	0.8277	0.7998	0.394
C 	C 	0.2618	0.8295	0.8326	-0.88
O 	O 	0.77701	0.46861	0.08858	-0.413
O 	O 	0.50273	0.67203	0.51174	-0.422
O 	O 	0.80106	0.96986	0.03868	-0.368
O 	O 	0.00772	0.69512	0.46176	-0.405
O 	O 	0.94885	0.76595	0.4613	-0.425
O 	O 	0.73279	0.90859	0.03702	-0.376
O 	O 	0.70723	0.52719	0.08974	-0.376
O 	O 	0.56591	0.73651	0.51278	-0.419
O 	O 	0.84658	0.51798	0.29264	-0.275
O 	O 	0.95053	0.62513	0.25974	-0.259
O 	O 	0.63441	0.44281	0.08858	-0.413
O 	O 	0.48553	0.81623	0.51174	-0.422
O 	O 	0.66026	0.99146	0.03868	-0.368
O 	O 	0.03052	0.84312	0.46176	-0.405
O 	O 	0.08985	0.77275	0.4613	-0.425
O 	O 	0.73019	0.05439	0.03702	-0.376
O 	O 	0.70303	0.38307	0.08974	-0.376
O 	O 	0.42131	0.75071	0.51278	-0.419
O 	O 	0.36078	0.18938	0.29264	-0.275
O 	O 	0.28973	0.11513	0.25974	-0.259
O 	O 	0.46861	0.63441	0.58858	-0.413
O 	O 	0.67203	0.48553	0.01174	-0.422
O 	O 	0.96986	0.66026	0.53868	-0.368
O 	O 	0.69512	0.03052	0.96176	-0.405
O 	O 	0.76595	0.08985	0.9613	-0.425
O 	O 	0.90859	0.73019	0.53702	-0.376
O 	O 	0.52719	0.70303	0.58974	-0.376
O 	O 	0.73651	0.42131	0.01278	-0.418
O 	O 	0.51798	0.36078	0.79264	-0.275
O 	O 	0.62513	0.28973	0.75974	-0.258
O 	O 	0.44281	0.77701	0.58858	-0.413
O 	O 	0.81623	0.50273	0.01174	-0.422
O 	O 	0.99146	0.80106	0.53868	-0.368
O 	O 	0.84312	0.00772	0.96176	-0.404
O 	O 	0.77275	0.94885	0.9613	-0.425
O 	O 	0.05439	0.73279	0.53702	-0.376
O 	O 	0.38307	0.70723	0.58974	-0.376
O 	O 	0.75071	0.56591	0.01278	-0.418
O 	O 	0.18938	0.84658	0.79264	-0.275
O 	O 	0.11513	0.95053	0.75974	-0.258
_end
