data_functionalizedCrystal
_audit_creation_method	'EQeq! by Chris Wilmer'
_symmetry_space_group_name_H-M	'P1'
_symmetry_Int_Tables_number	1
_symmetry_cell_setting	triclinic
loop_
_symmetry_equiv_pos_as_xyz
  x,y,z
_cell_length_a	20.7004
_cell_length_b	20.7004
_cell_length_c	20.7004
_cell_angle_alpha	90
_cell_angle_beta	90
_cell_angle_gamma	90
loop_
_atom_site_label
_atom_site_type_symbol
_atom_site_fract_x
_atom_site_fract_y
_atom_site_fract_z
_atom_site_charge
Zr	Zr	0.11989	0	-0	3.152
O 	O 	0.17047	-7.11466e-34	0.0953	-0.793
O 	O 	0.0561	0.9439	0.9439	-0.934
C 	C 	0.1536	1.13835e-32	0.8464	0.538
C 	C 	0.205	-1.42293e-33	0.205	-0.175
C 	C 	0.2675	-1.42293e-33	0.1844	-0.036
Zr	Zr	-0	0.11989	-0	3.152
Zr	Zr	0.88011	0	-0	3.149
Zr	Zr	1.13835e-32	0.88011	-0	3.149
Zr	Zr	4.49516e-34	0	0.11989	3.152
Zr	Zr	1.46833e-32	1.13835e-32	0.88011	3.149
Zr	Zr	0.11989	0.5	0.5	3.226
Zr	Zr	7.56643e-33	0.61989	0.5	3.188
Zr	Zr	0.88011	0.5	0.5	3.221
Zr	Zr	1.8747e-33	0.38011	0.5	3.186
Zr	Zr	8.01594e-33	0.5	0.61989	3.187
Zr	Zr	4.27105e-33	0.5	0.38011	3.186
Zr	Zr	0.61989	-5.69173e-33	0.5	3.187
Zr	Zr	0.5	0.11989	0.5	3.225
Zr	Zr	0.38011	-5.69173e-33	0.5	3.186
Zr	Zr	0.5	0.88011	0.5	3.22
Zr	Zr	0.5	5.69173e-33	0.61989	3.187
Zr	Zr	0.5	2.84586e-33	0.38011	3.186
Zr	Zr	0.61989	0.5	-0	3.187
Zr	Zr	0.5	0.61989	-0	3.187
Zr	Zr	0.38011	0.5	-0	3.186
Zr	Zr	0.5	0.38011	-0	3.186
Zr	Zr	0.5	0.5	0.11989	3.225
Zr	Zr	0.5	0.5	0.88011	3.22
O 	O 	-3.20001e-33	0.17047	0.0953	-0.794
O 	O 	0.82953	-7.11466e-34	0.0953	-0.774
O 	O 	-1.77708e-33	0.82953	0.0953	-0.774
O 	O 	0.17047	0	0.9047	-0.592
O 	O 	-7.99138e-33	0.17047	0.9047	-0.592
O 	O 	0.82953	0	0.9047	-0.576
O 	O 	3.39208e-33	0.82953	0.9047	-0.576
O 	O 	0.0953	0.17047	-0	-0.794
O 	O 	0.82953	0.0953	-0	-0.774
O 	O 	0.9047	0.82953	-0	-0.576
O 	O 	0.17047	0.9047	-0	-0.592
O 	O 	0.0953	0.82953	-0	-0.774
O 	O 	0.17047	0.0953	-0	-0.794
O 	O 	0.9047	0.17047	-0	-0.592
O 	O 	0.82953	0.9047	-0	-0.576
O 	O 	-3.62964e-33	0.0953	0.17047	-0.794
O 	O 	-2.58149e-33	0.9047	0.82953	-0.576
O 	O 	0.0953	-5.69173e-33	0.82953	-0.774
O 	O 	-2.58149e-33	0.0953	0.82953	-0.774
O 	O 	0.9047	-5.69173e-33	0.82953	-0.576
O 	O 	-3.62964e-33	0.9047	0.17047	-0.592
O 	O 	0.0953	-1.42293e-33	0.17047	-0.794
O 	O 	0.9047	-1.42293e-33	0.17047	-0.592
O 	O 	0.17047	0.5	0.5953	-0.641
O 	O 	-3.45971e-33	0.67047	0.5953	-0.751
O 	O 	0.82953	0.5	0.5953	-0.622
O 	O 	2.23202e-33	0.32953	0.5953	-0.772
O 	O 	0.17047	0.5	0.4047	-0.643
O 	O 	1.51738e-33	0.67047	0.4047	-0.752
O 	O 	0.82953	0.5	0.4047	-0.624
O 	O 	-1.32848e-33	0.32953	0.4047	-0.774
O 	O 	0.0953	0.67047	0.5	-0.655
O 	O 	0.82953	0.5953	0.5	-0.622
O 	O 	0.9047	0.32953	0.5	-0.474
O 	O 	0.17047	0.4047	0.5	-0.643
O 	O 	0.0953	0.32953	0.5	-0.675
O 	O 	0.17047	0.5953	0.5	-0.641
O 	O 	0.9047	0.67047	0.5	-0.455
O 	O 	0.82953	0.4047	0.5	-0.624
O 	O 	-3.17787e-33	0.5953	0.67047	-0.751
O 	O 	1.23554e-33	0.4047	0.32953	-0.774
O 	O 	0.0953	0.5	0.32953	-0.675
O 	O 	1.23554e-33	0.5953	0.32953	-0.772
O 	O 	0.9047	0.5	0.32953	-0.474
O 	O 	2.51386e-33	0.4047	0.67047	-0.752
O 	O 	0.0953	0.5	0.67047	-0.655
O 	O 	0.9047	0.5	0.67047	-0.455
O 	O 	0.67047	0	0.5953	-0.751
O 	O 	0.5	0.17047	0.5953	-0.641
O 	O 	0.32953	0	0.5953	-0.772
O 	O 	0.5	0.82953	0.5953	-0.622
O 	O 	0.67047	0	0.4047	-0.752
O 	O 	0.5	0.17047	0.4047	-0.643
O 	O 	0.32953	0	0.4047	-0.774
O 	O 	0.5	0.82953	0.4047	-0.624
O 	O 	0.5953	0.17047	0.5	-0.641
O 	O 	0.32953	0.0953	0.5	-0.675
O 	O 	0.4047	0.82953	0.5	-0.624
O 	O 	0.67047	0.9047	0.5	-0.455
O 	O 	0.5953	0.82953	0.5	-0.622
O 	O 	0.67047	0.0953	0.5	-0.655
O 	O 	0.4047	0.17047	0.5	-0.643
O 	O 	0.32953	0.9047	0.5	-0.474
O 	O 	0.5	0.0953	0.67047	-0.655
O 	O 	0.5	0.9047	0.32953	-0.474
O 	O 	0.5953	0	0.32953	-0.772
O 	O 	0.5	0.0953	0.32953	-0.675
O 	O 	0.4047	0	0.32953	-0.774
O 	O 	0.5	0.9047	0.67047	-0.455
O 	O 	0.5953	0	0.67047	-0.751
O 	O 	0.4047	0	0.67047	-0.752
O 	O 	0.67047	0.5	0.0953	-0.655
O 	O 	0.5	0.67047	0.0953	-0.655
O 	O 	0.32953	0.5	0.0953	-0.675
O 	O 	0.5	0.32953	0.0953	-0.675
O 	O 	0.67047	0.5	0.9047	-0.455
O 	O 	0.5	0.67047	0.9047	-0.455
O 	O 	0.32953	0.5	0.9047	-0.474
O 	O 	0.5	0.32953	0.9047	-0.474
O 	O 	0.5953	0.67047	-0	-0.751
O 	O 	0.32953	0.5953	-0	-0.772
O 	O 	0.4047	0.32953	-0	-0.774
O 	O 	0.67047	0.4047	-0	-0.752
O 	O 	0.5953	0.32953	-0	-0.772
O 	O 	0.67047	0.5953	-0	-0.751
O 	O 	0.4047	0.67047	-0	-0.752
O 	O 	0.32953	0.4047	-0	-0.774
O 	O 	0.5	0.5953	0.17047	-0.641
O 	O 	0.5	0.4047	0.82953	-0.624
O 	O 	0.5953	0.5	0.82953	-0.622
O 	O 	0.5	0.5953	0.82953	-0.622
O 	O 	0.4047	0.5	0.82953	-0.624
O 	O 	0.5	0.4047	0.17047	-0.643
O 	O 	0.5953	0.5	0.17047	-0.641
O 	O 	0.4047	0.5	0.17047	-0.643
O 	O 	0.0561	0.0561	0.9439	-1.197
O 	O 	0.9439	0.0561	0.9439	-0.935
O 	O 	0.9439	0.9439	0.9439	-0.683
O 	O 	0.0561	0.0561	0.0561	-1.47
O 	O 	0.9439	0.0561	0.0561	-1.197
O 	O 	0.9439	0.9439	0.0561	-0.935
O 	O 	0.0561	0.9439	0.0561	-1.197
O 	O 	0.0561	0.4439	0.4439	-1.307
O 	O 	0.0561	0.5561	0.4439	-1.306
O 	O 	0.9439	0.5561	0.4439	-1.034
O 	O 	0.9439	0.4439	0.4439	-1.034
O 	O 	0.0561	0.5561	0.5561	-1.304
O 	O 	0.9439	0.5561	0.5561	-1.034
O 	O 	0.9439	0.4439	0.5561	-1.034
O 	O 	0.0561	0.4439	0.5561	-1.306
O 	O 	0.5561	0.9439	0.4439	-1.034
O 	O 	0.5561	0.0561	0.4439	-1.306
O 	O 	0.4439	0.0561	0.4439	-1.307
O 	O 	0.4439	0.9439	0.4439	-1.034
O 	O 	0.5561	0.0561	0.5561	-1.304
O 	O 	0.4439	0.0561	0.5561	-1.306
O 	O 	0.4439	0.9439	0.5561	-1.034
O 	O 	0.5561	0.9439	0.5561	-1.034
O 	O 	0.5561	0.4439	0.9439	-1.034
O 	O 	0.5561	0.5561	0.9439	-1.034
O 	O 	0.4439	0.5561	0.9439	-1.034
O 	O 	0.4439	0.4439	0.9439	-1.034
O 	O 	0.5561	0.5561	0.0561	-1.304
O 	O 	0.4439	0.5561	0.0561	-1.306
O 	O 	0.4439	0.4439	0.0561	-1.307
O 	O 	0.5561	0.4439	0.0561	-1.306
C 	C 	1.45569e-32	0.1536	0.8464	0.537
C 	C 	0.8464	1.13835e-32	0.8464	0.529
C 	C 	2.59404e-32	0.8464	0.8464	0.529
C 	C 	0.1536	0	0.1536	0.546
C 	C 	5.75908e-34	0.1536	0.1536	0.546
C 	C 	0.8464	0	0.1536	0.537
C 	C 	1.05364e-32	0.8464	0.1536	0.537
C 	C 	0.8464	0.1536	-0	0.537
C 	C 	0.8464	0.8464	-0	0.529
C 	C 	0.1536	0.8464	-0	0.537
C 	C 	0.1536	0.1536	-0	0.546
C 	C 	0.1536	0.5	0.3464	0.555
C 	C 	-4.39294e-33	0.6536	0.3464	0.54
C 	C 	0.8464	0.5	0.3464	0.546
C 	C 	1.29879e-33	0.3464	0.3464	0.531
C 	C 	0.1536	0.5	0.6536	0.563
C 	C 	-8.93285e-33	0.6536	0.6536	0.548
C 	C 	0.8464	0.5	0.6536	0.555
C 	C 	-3.24112e-33	0.3464	0.6536	0.54
C 	C 	0.8464	0.6536	0.5	0.555
C 	C 	0.8464	0.3464	0.5	0.546
C 	C 	0.1536	0.3464	0.5	0.555
C 	C 	0.1536	0.6536	0.5	0.563
C 	C 	0.6536	0	0.3464	0.54
C 	C 	0.5	0.1536	0.3464	0.555
C 	C 	0.3464	0	0.3464	0.531
C 	C 	0.5	0.8464	0.3464	0.546
C 	C 	0.6536	-5.69173e-33	0.6536	0.548
C 	C 	0.5	0.1536	0.6536	0.563
C 	C 	0.3464	-5.69173e-33	0.6536	0.54
C 	C 	0.5	0.8464	0.6536	0.555
C 	C 	0.3464	0.1536	0.5	0.555
C 	C 	0.3464	0.8464	0.5	0.546
C 	C 	0.6536	0.8464	0.5	0.555
C 	C 	0.6536	0.1536	0.5	0.563
C 	C 	0.6536	0.5	0.8464	0.555
C 	C 	0.5	0.6536	0.8464	0.555
C 	C 	0.3464	0.5	0.8464	0.546
C 	C 	0.5	0.3464	0.8464	0.546
C 	C 	0.6536	0.5	0.1536	0.563
C 	C 	0.5	0.6536	0.1536	0.563
C 	C 	0.3464	0.5	0.1536	0.555
C 	C 	0.5	0.3464	0.1536	0.555
C 	C 	0.3464	0.6536	-0	0.54
C 	C 	0.3464	0.3464	-0	0.531
C 	C 	0.6536	0.3464	-0	0.54
C 	C 	0.6536	0.6536	-0	0.548
C 	C 	-2.07724e-33	0.205	0.205	-0.176
C 	C 	0.795	-1.42293e-33	0.205	-0.163
C 	C 	-3.50017e-33	0.795	0.205	-0.163
C 	C 	0.205	0	0.795	-0.163
C 	C 	-2.71096e-33	0.205	0.795	-0.163
C 	C 	0.795	0	0.795	-0.151
C 	C 	2.98077e-33	0.795	0.795	-0.151
C 	C 	0.205	0.205	-0	-0.176
C 	C 	0.795	0.205	-0	-0.163
C 	C 	0.795	0.795	-0	-0.151
C 	C 	0.205	0.795	-0	-0.163
C 	C 	0.205	0.5	0.705	-0.155
C 	C 	-3.0484e-33	0.705	0.705	-0.175
C 	C 	0.795	0.5	0.705	-0.142
C 	C 	-3.0484e-33	0.295	0.705	-0.174
C 	C 	0.205	0.5	0.295	-0.155
C 	C 	-1.73979e-33	0.705	0.295	-0.174
C 	C 	0.795	0.5	0.295	-0.142
C 	C 	1.10607e-33	0.295	0.295	-0.174
C 	C 	0.205	0.705	0.5	-0.155
C 	C 	0.795	0.705	0.5	-0.142
C 	C 	0.795	0.295	0.5	-0.142
C 	C 	0.205	0.295	0.5	-0.155
C 	C 	0.705	0	0.705	-0.175
C 	C 	0.5	0.205	0.705	-0.155
C 	C 	0.295	0	0.705	-0.174
C 	C 	0.5	0.795	0.705	-0.142
C 	C 	0.705	0	0.295	-0.174
C 	C 	0.5	0.205	0.295	-0.155
C 	C 	0.295	0	0.295	-0.174
C 	C 	0.5	0.795	0.295	-0.142
C 	C 	0.705	0.205	0.5	-0.155
C 	C 	0.295	0.205	0.5	-0.155
C 	C 	0.295	0.795	0.5	-0.142
C 	C 	0.705	0.795	0.5	-0.142
C 	C 	0.705	0.5	0.205	-0.155
C 	C 	0.5	0.705	0.205	-0.155
C 	C 	0.295	0.5	0.205	-0.155
C 	C 	0.5	0.295	0.205	-0.155
C 	C 	0.705	0.5	0.795	-0.142
C 	C 	0.5	0.705	0.795	-0.142
C 	C 	0.295	0.5	0.795	-0.142
C 	C 	0.5	0.295	0.795	-0.142
C 	C 	0.705	0.705	-0	-0.175
C 	C 	0.295	0.705	-0	-0.174
C 	C 	0.295	0.295	-0	-0.174
C 	C 	0.705	0.295	-0	-0.174
C 	C 	-3.57741e-33	0.2675	0.1844	-0.037
C 	C 	0.7325	-1.42293e-33	0.1844	-0.021
C 	C 	-3.57741e-33	0.7325	0.1844	-0.021
C 	C 	0.2675	0	0.8156	0.077
C 	C 	-8.32545e-33	0.2675	0.8156	0.077
C 	C 	0.7325	0	0.8156	0.092
C 	C 	-2.63372e-33	0.7325	0.8156	0.092
C 	C 	0.1844	0.2675	-0	-0.037
C 	C 	0.7325	0.1844	-0	-0.021
C 	C 	0.8156	0.7325	-0	0.092
C 	C 	0.2675	0.8156	-0	0.077
C 	C 	0.1844	0.7325	-0	-0.021
C 	C 	0.2675	0.1844	-0	-0.037
C 	C 	0.8156	0.2675	-0	0.077
C 	C 	0.7325	0.8156	-0	0.092
C 	C 	-4.68876e-33	0.1844	0.2675	-0.037
C 	C 	2.74644e-33	0.8156	0.7325	0.092
C 	C 	0.1844	0	0.7325	-0.021
C 	C 	-2.94529e-33	0.1844	0.7325	-0.021
C 	C 	0.8156	0	0.7325	0.092
C 	C 	-1.03805e-32	0.8156	0.2675	0.077
C 	C 	0.1844	-2.84586e-33	0.2675	-0.037
C 	C 	0.8156	-2.84586e-33	0.2675	0.077
C 	C 	0.2675	0.5	0.6844	0.065
C 	C 	2.56609e-33	0.7675	0.6844	0.032
C 	C 	0.7325	0.5	0.6844	0.081
C 	C 	-3.12564e-33	0.2325	0.6844	-0.02
C 	C 	0.2675	0.5	0.3156	0.055
C 	C 	-4.50842e-33	0.7675	0.3156	0.022
C 	C 	0.7325	0.5	0.3156	0.071
C 	C 	1.18331e-33	0.2325	0.3156	-0.03
C 	C 	0.1844	0.7675	0.5	0.079
C 	C 	0.7325	0.6844	0.5	0.081
C 	C 	0.8156	0.2325	0.5	0.142
C 	C 	0.2675	0.3156	0.5	0.055
C 	C 	0.1844	0.2325	0.5	0.027
C 	C 	0.2675	0.6844	0.5	0.065
C 	C 	0.8156	0.7675	0.5	0.192
C 	C 	0.7325	0.3156	0.5	0.071
C 	C 	-2.81406e-33	0.6844	0.7675	0.032
C 	C 	8.71735e-34	0.3156	0.2325	-0.03
C 	C 	0.1844	0.5	0.2325	0.027
C 	C 	8.71735e-34	0.6844	0.2325	-0.02
C 	C 	0.8156	0.5	0.2325	0.142
C 	C 	-2.81406e-33	0.3156	0.7675	0.022
C 	C 	0.1844	0.5	0.7675	0.079
C 	C 	0.8156	0.5	0.7675	0.192
C 	C 	0.7675	0	0.6844	0.032
C 	C 	0.5	0.2675	0.6844	0.065
C 	C 	0.2325	0	0.6844	-0.02
C 	C 	0.5	0.7325	0.6844	0.081
C 	C 	0.7675	-2.84586e-33	0.3156	0.022
C 	C 	0.5	0.2675	0.3156	0.055
C 	C 	0.2325	-2.84586e-33	0.3156	-0.03
C 	C 	0.5	0.7325	0.3156	0.071
C 	C 	0.6844	0.2675	0.5	0.065
C 	C 	0.2325	0.1844	0.5	0.027
C 	C 	0.3156	0.7325	0.5	0.071
C 	C 	0.7675	0.8156	0.5	0.192
C 	C 	0.6844	0.7325	0.5	0.081
C 	C 	0.7675	0.1844	0.5	0.079
C 	C 	0.3156	0.2675	0.5	0.055
C 	C 	0.2325	0.8156	0.5	0.142
C 	C 	0.5	0.1844	0.7675	0.079
C 	C 	0.5	0.8156	0.2325	0.142
C 	C 	0.6844	0	0.2325	-0.02
C 	C 	0.5	0.1844	0.2325	0.027
C 	C 	0.3156	0	0.2325	-0.03
C 	C 	0.5	0.8156	0.7675	0.192
C 	C 	0.6844	0	0.7675	0.032
C 	C 	0.3156	0	0.7675	0.022
C 	C 	0.7675	0.5	0.1844	0.079
C 	C 	0.5	0.7675	0.1844	0.079
C 	C 	0.2325	0.5	0.1844	0.027
C 	C 	0.5	0.2325	0.1844	0.027
C 	C 	0.7675	0.5	0.8156	0.192
C 	C 	0.5	0.7675	0.8156	0.192
C 	C 	0.2325	0.5	0.8156	0.142
C 	C 	0.5	0.2325	0.8156	0.142
C 	C 	0.6844	0.7675	-0	0.032
C 	C 	0.2325	0.6844	-0	-0.02
C 	C 	0.3156	0.2325	-0	-0.03
C 	C 	0.7675	0.3156	-0	0.022
C 	C 	0.6844	0.2325	-0	-0.02
C 	C 	0.7675	0.6844	-0	0.032
C 	C 	0.3156	0.7675	-0	0.022
C 	C 	0.2325	0.3156	-0	-0.03
C 	C 	0.5	0.6844	0.2675	0.065
C 	C 	0.5	0.3156	0.7325	0.071
C 	C 	0.6844	0.5	0.7325	0.081
C 	C 	0.5	0.6844	0.7325	0.081
C 	C 	0.3156	0.5	0.7325	0.071
C 	C 	0.5	0.3156	0.2675	0.055
C 	C 	0.6844	0.5	0.2675	0.065
C 	C 	0.3156	0.5	0.2675	0.055
_end
