data_functionalizedCrystal
_audit_creation_method	'EQeq! by Chris Wilmer'
_symmetry_space_group_name_H-M	'P1'
_symmetry_Int_Tables_number	1
_symmetry_cell_setting	triclinic
loop_
_symmetry_equiv_pos_as_xyz
  x,y,z
_cell_length_a	36.0504
_cell_length_b	36.0504
_cell_length_c	36.0504
_cell_angle_alpha	60
_cell_angle_beta	60
_cell_angle_gamma	60
loop_
_atom_site_label
_atom_site_type_symbol
_atom_site_fract_x
_atom_site_fract_y
_atom_site_fract_z
_atom_site_charge
Fe	Fe	0.55873	0.03907	0.44127	1.154
Fe	Fe	0.03907	0.55873	0.96093	1.154
Fe	Fe	0.44127	0.96093	0.55873	1.154
Fe	Fe	0.96093	0.44127	0.03907	1.154
Fe	Fe	0.55873	0.44127	0.96093	1.154
Fe	Fe	0.03907	0.96093	0.44127	1.154
Fe	Fe	0.44127	0.55873	0.03907	1.154
Fe	Fe	0.96093	0.03907	0.55873	1.154
Fe	Fe	0.55873	0.96093	0.03907	1.153
Fe	Fe	0.03907	0.44127	0.55873	1.153
Fe	Fe	0.44127	0.03907	0.96093	1.153
Fe	Fe	0.96093	0.55873	0.44127	1.153
Fe	Fe	0.46093	0.94127	0.05873	1.153
Fe	Fe	0.94127	0.46093	0.53907	1.153
Fe	Fe	0.53907	0.05873	0.94127	1.153
Fe	Fe	0.05873	0.53907	0.46093	1.153
Fe	Fe	0.05873	0.94127	0.53907	1.153
Fe	Fe	0.53907	0.46093	0.05873	1.153
Fe	Fe	0.94127	0.05873	0.46093	1.153
Fe	Fe	0.46093	0.53907	0.94127	1.153
Fe	Fe	0.53907	0.94127	0.46093	1.153
Fe	Fe	0.05873	0.46093	0.94127	1.153
Fe	Fe	0.46093	0.05873	0.53907	1.153
Fe	Fe	0.94127	0.53907	0.05873	1.153
H 	H 	0.4038	0.1756	0.4662	0.036
H 	H 	0.514	0.1812	0.352	0.02
H 	H 	0.472	0.254	0.3152	0.031
H 	H 	0.3589	0.2853	0.4673	0.197
H 	H 	0.341	0.2428	0.497	0.193
H 	H 	0.3069	0.2925	0.4801	0.197
H 	H 	0.3044	0.2334	0.4416	0.159
H 	H 	0.2792	0.2648	0.4724	0.149
H 	H 	0.3154	0.2154	0.4868	0.154
H 	H 	0.1756	0.4038	0.9544	0.036
H 	H 	0.1812	0.514	0.9528	0.02
H 	H 	0.254	0.472	0.9588	0.031
H 	H 	0.2853	0.3589	0.8885	0.197
H 	H 	0.2428	0.341	0.9192	0.193
H 	H 	0.2925	0.3069	0.9205	0.197
H 	H 	0.2334	0.3044	0.0206	0.159
H 	H 	0.2648	0.2792	0.9836	0.149
H 	H 	0.2154	0.3154	0.9824	0.154
H 	H 	0.4662	0.9544	0.4038	0.036
H 	H 	0.352	0.9528	0.514	0.02
H 	H 	0.3152	0.9588	0.472	0.031
H 	H 	0.4673	0.8885	0.3589	0.197
H 	H 	0.497	0.9192	0.341	0.193
H 	H 	0.4801	0.9205	0.3069	0.197
H 	H 	0.4416	0.0206	0.3044	0.159
H 	H 	0.4724	0.9836	0.2792	0.149
H 	H 	0.4868	0.9824	0.3154	0.154
H 	H 	0.9544	0.4662	0.1756	0.036
H 	H 	0.9528	0.352	0.1812	0.02
H 	H 	0.9588	0.3152	0.254	0.031
H 	H 	0.8885	0.4673	0.2853	0.197
H 	H 	0.9192	0.497	0.2428	0.193
H 	H 	0.9205	0.4801	0.2925	0.197
H 	H 	0.0206	0.4416	0.2334	0.159
H 	H 	0.9836	0.4724	0.2648	0.149
H 	H 	0.9824	0.4868	0.2154	0.154
H 	H 	0.4038	0.4662	0.9544	0.036
H 	H 	0.514	0.352	0.9528	0.02
H 	H 	0.472	0.3152	0.9588	0.031
H 	H 	0.3589	0.4673	0.8885	0.197
H 	H 	0.341	0.497	0.9192	0.193
H 	H 	0.3069	0.4801	0.9205	0.197
H 	H 	0.3044	0.4416	0.0206	0.159
H 	H 	0.2792	0.4724	0.9836	0.149
H 	H 	0.3154	0.4868	0.9824	0.154
H 	H 	0.1756	0.9544	0.4662	0.036
H 	H 	0.1812	0.9528	0.352	0.02
H 	H 	0.254	0.9588	0.3152	0.031
H 	H 	0.2853	0.8885	0.4673	0.197
H 	H 	0.2428	0.9192	0.497	0.193
H 	H 	0.2925	0.9205	0.4801	0.197
H 	H 	0.2334	0.0206	0.4416	0.159
H 	H 	0.2648	0.9836	0.4724	0.149
H 	H 	0.2154	0.9824	0.4868	0.154
H 	H 	0.4662	0.4038	0.1756	0.036
H 	H 	0.352	0.514	0.1812	0.02
H 	H 	0.3152	0.472	0.254	0.031
H 	H 	0.4673	0.3589	0.2853	0.197
H 	H 	0.497	0.341	0.2428	0.193
H 	H 	0.4801	0.3069	0.2925	0.197
H 	H 	0.4416	0.3044	0.2334	0.159
H 	H 	0.4724	0.2792	0.2648	0.149
H 	H 	0.4868	0.3154	0.2154	0.154
H 	H 	0.9544	0.1756	0.4038	0.036
H 	H 	0.9528	0.1812	0.514	0.02
H 	H 	0.9588	0.254	0.472	0.031
H 	H 	0.8885	0.2853	0.3589	0.197
H 	H 	0.9192	0.2428	0.341	0.193
H 	H 	0.9205	0.2925	0.3069	0.197
H 	H 	0.0206	0.2334	0.3044	0.159
H 	H 	0.9836	0.2648	0.2792	0.149
H 	H 	0.9824	0.2154	0.3154	0.154
H 	H 	0.4038	0.9544	0.1756	0.036
H 	H 	0.514	0.9528	0.1812	0.02
H 	H 	0.472	0.9588	0.254	0.031
H 	H 	0.3589	0.8885	0.2853	0.197
H 	H 	0.341	0.9192	0.2428	0.193
H 	H 	0.3069	0.9205	0.2925	0.197
H 	H 	0.3044	0.0206	0.2334	0.159
H 	H 	0.2792	0.9836	0.2648	0.149
H 	H 	0.3154	0.9824	0.2154	0.154
H 	H 	0.1756	0.4662	0.4038	0.036
H 	H 	0.1812	0.352	0.514	0.02
H 	H 	0.254	0.3152	0.472	0.031
H 	H 	0.2853	0.4673	0.3589	0.197
H 	H 	0.2428	0.497	0.341	0.193
H 	H 	0.2925	0.4801	0.3069	0.197
H 	H 	0.2334	0.4416	0.3044	0.159
H 	H 	0.2648	0.4724	0.2792	0.149
H 	H 	0.2154	0.4868	0.3154	0.154
H 	H 	0.4662	0.1756	0.9544	0.036
H 	H 	0.352	0.1812	0.9528	0.02
H 	H 	0.3152	0.254	0.9588	0.031
H 	H 	0.4673	0.2853	0.8885	0.197
H 	H 	0.497	0.2428	0.9192	0.193
H 	H 	0.4801	0.2925	0.9205	0.197
H 	H 	0.4416	0.2334	0.0206	0.159
H 	H 	0.4724	0.2648	0.9836	0.149
H 	H 	0.4868	0.2154	0.9824	0.154
H 	H 	0.9544	0.4038	0.4662	0.036
H 	H 	0.9528	0.514	0.352	0.02
H 	H 	0.9588	0.472	0.3152	0.031
H 	H 	0.8885	0.3589	0.4673	0.197
H 	H 	0.9192	0.341	0.497	0.193
H 	H 	0.9205	0.3069	0.4801	0.197
H 	H 	0.0206	0.3044	0.4416	0.159
H 	H 	0.9836	0.2792	0.4724	0.149
H 	H 	0.9824	0.3154	0.4868	0.154
H 	H 	0.3244	0.0962	0.0338	0.036
H 	H 	0.3188	0.986	0.148	0.02
H 	H 	0.246	0.028	0.1848	0.031
H 	H 	0.2147	0.1411	0.0327	0.197
H 	H 	0.2572	0.159	0.003	0.193
H 	H 	0.2075	0.1931	0.0199	0.197
H 	H 	0.2666	0.1956	0.0584	0.159
H 	H 	0.2352	0.2208	0.0276	0.149
H 	H 	0.2846	0.1846	0.0132	0.154
H 	H 	0.0962	0.3244	0.5456	0.036
H 	H 	0.986	0.3188	0.5472	0.02
H 	H 	0.028	0.246	0.5412	0.031
H 	H 	0.1411	0.2147	0.6115	0.197
H 	H 	0.159	0.2572	0.5808	0.193
H 	H 	0.1931	0.2075	0.5795	0.197
H 	H 	0.1956	0.2666	0.4794	0.159
H 	H 	0.2208	0.2352	0.5164	0.149
H 	H 	0.1846	0.2846	0.5176	0.154
H 	H 	0.5456	0.0338	0.0962	0.036
H 	H 	0.5472	0.148	0.986	0.02
H 	H 	0.5412	0.1848	0.028	0.031
H 	H 	0.6115	0.0327	0.1411	0.197
H 	H 	0.5808	0.003	0.159	0.193
H 	H 	0.5795	0.0199	0.1931	0.197
H 	H 	0.4794	0.0584	0.1956	0.159
H 	H 	0.5164	0.0276	0.2208	0.149
H 	H 	0.5176	0.0132	0.1846	0.154
H 	H 	0.0338	0.5456	0.3244	0.036
H 	H 	0.148	0.5472	0.3188	0.02
H 	H 	0.1848	0.5412	0.246	0.031
H 	H 	0.0327	0.6115	0.2147	0.197
H 	H 	0.003	0.5808	0.2572	0.193
H 	H 	0.0199	0.5795	0.2075	0.197
H 	H 	0.0584	0.4794	0.2666	0.159
H 	H 	0.0276	0.5164	0.2352	0.149
H 	H 	0.0132	0.5176	0.2846	0.154
H 	H 	0.0338	0.0962	0.5456	0.036
H 	H 	0.148	0.986	0.5472	0.02
H 	H 	0.1848	0.028	0.5412	0.031
H 	H 	0.0327	0.1411	0.6115	0.197
H 	H 	0.003	0.159	0.5808	0.193
H 	H 	0.0199	0.1931	0.5795	0.197
H 	H 	0.0584	0.1956	0.4794	0.159
H 	H 	0.0276	0.2208	0.5164	0.149
H 	H 	0.0132	0.1846	0.5176	0.154
H 	H 	0.5456	0.3244	0.0338	0.036
H 	H 	0.5472	0.3188	0.148	0.02
H 	H 	0.5412	0.246	0.1848	0.031
H 	H 	0.6115	0.2147	0.0327	0.197
H 	H 	0.5808	0.2572	0.003	0.193
H 	H 	0.5795	0.2075	0.0199	0.197
H 	H 	0.4794	0.2666	0.0584	0.159
H 	H 	0.5164	0.2352	0.0276	0.149
H 	H 	0.5176	0.2846	0.0132	0.154
H 	H 	0.0962	0.0338	0.3244	0.036
H 	H 	0.986	0.148	0.3188	0.02
H 	H 	0.028	0.1848	0.246	0.031
H 	H 	0.1411	0.0327	0.2147	0.197
H 	H 	0.159	0.003	0.2572	0.193
H 	H 	0.1931	0.0199	0.2075	0.197
H 	H 	0.1956	0.0584	0.2666	0.159
H 	H 	0.2208	0.0276	0.2352	0.149
H 	H 	0.1846	0.0132	0.2846	0.154
H 	H 	0.3244	0.5456	0.0962	0.036
H 	H 	0.3188	0.5472	0.986	0.02
H 	H 	0.246	0.5412	0.028	0.031
H 	H 	0.2147	0.6115	0.1411	0.197
H 	H 	0.2572	0.5808	0.159	0.193
H 	H 	0.2075	0.5795	0.1931	0.197
H 	H 	0.2666	0.4794	0.1956	0.159
H 	H 	0.2352	0.5164	0.2208	0.149
H 	H 	0.2846	0.5176	0.1846	0.154
H 	H 	0.5456	0.0962	0.3244	0.036
H 	H 	0.5472	0.986	0.3188	0.02
H 	H 	0.5412	0.028	0.246	0.031
H 	H 	0.6115	0.1411	0.2147	0.197
H 	H 	0.5808	0.159	0.2572	0.193
H 	H 	0.5795	0.1931	0.2075	0.197
H 	H 	0.4794	0.1956	0.2666	0.159
H 	H 	0.5164	0.2208	0.2352	0.149
H 	H 	0.5176	0.1846	0.2846	0.154
H 	H 	0.0338	0.3244	0.0962	0.036
H 	H 	0.148	0.3188	0.986	0.02
H 	H 	0.1848	0.246	0.028	0.031
H 	H 	0.0327	0.2147	0.1411	0.197
H 	H 	0.003	0.2572	0.159	0.193
H 	H 	0.0199	0.2075	0.1931	0.197
H 	H 	0.0584	0.2666	0.1956	0.159
H 	H 	0.0276	0.2352	0.2208	0.149
H 	H 	0.0132	0.2846	0.1846	0.154
H 	H 	0.3244	0.0338	0.5456	0.036
H 	H 	0.3188	0.148	0.5472	0.02
H 	H 	0.246	0.1848	0.5412	0.031
H 	H 	0.2147	0.0327	0.6115	0.197
H 	H 	0.2572	0.003	0.5808	0.193
H 	H 	0.2075	0.0199	0.5795	0.197
H 	H 	0.2666	0.0584	0.4794	0.159
H 	H 	0.2352	0.0276	0.5164	0.149
H 	H 	0.2846	0.0132	0.5176	0.154
H 	H 	0.0962	0.5456	0.0338	0.036
H 	H 	0.986	0.5472	0.148	0.02
H 	H 	0.028	0.5412	0.1848	0.031
H 	H 	0.1411	0.6115	0.0327	0.197
H 	H 	0.159	0.5808	0.003	0.193
H 	H 	0.1931	0.5795	0.0199	0.197
H 	H 	0.1956	0.4794	0.0584	0.159
H 	H 	0.2208	0.5164	0.0276	0.149
H 	H 	0.1846	0.5176	0.0132	0.154
H 	H 	0.5962	0.8244	0.5338	0.036
H 	H 	0.486	0.8188	0.648	0.02
H 	H 	0.528	0.746	0.6848	0.031
H 	H 	0.6411	0.7147	0.5327	0.197
H 	H 	0.659	0.7572	0.503	0.193
H 	H 	0.6931	0.7075	0.5199	0.197
H 	H 	0.6956	0.7666	0.5584	0.159
H 	H 	0.7208	0.7352	0.5276	0.149
H 	H 	0.6846	0.7846	0.5132	0.154
H 	H 	0.8244	0.5962	0.0456	0.036
H 	H 	0.8188	0.486	0.0472	0.02
H 	H 	0.746	0.528	0.0412	0.031
H 	H 	0.7147	0.6411	0.1115	0.197
H 	H 	0.7572	0.659	0.0808	0.193
H 	H 	0.7075	0.6931	0.0795	0.197
H 	H 	0.7666	0.6956	0.9794	0.159
H 	H 	0.7352	0.7208	0.0164	0.149
H 	H 	0.7846	0.6846	0.0176	0.154
H 	H 	0.5338	0.0456	0.5962	0.036
H 	H 	0.648	0.0472	0.486	0.02
H 	H 	0.6848	0.0412	0.528	0.031
H 	H 	0.5327	0.1115	0.6411	0.197
H 	H 	0.503	0.0808	0.659	0.193
H 	H 	0.5199	0.0795	0.6931	0.197
H 	H 	0.5584	0.9794	0.6956	0.159
H 	H 	0.5276	0.0164	0.7208	0.149
H 	H 	0.5132	0.0176	0.6846	0.154
H 	H 	0.0456	0.5338	0.8244	0.036
H 	H 	0.0472	0.648	0.8188	0.02
H 	H 	0.0412	0.6848	0.746	0.031
H 	H 	0.1115	0.5327	0.7147	0.197
H 	H 	0.0808	0.503	0.7572	0.193
H 	H 	0.0795	0.5199	0.7075	0.197
H 	H 	0.9794	0.5584	0.7666	0.159
H 	H 	0.0164	0.5276	0.7352	0.149
H 	H 	0.0176	0.5132	0.7846	0.154
H 	H 	0.5962	0.5338	0.0456	0.036
H 	H 	0.486	0.648	0.0472	0.02
H 	H 	0.528	0.6848	0.0412	0.031
H 	H 	0.6411	0.5327	0.1115	0.197
H 	H 	0.659	0.503	0.0808	0.193
H 	H 	0.6931	0.5199	0.0795	0.197
H 	H 	0.6956	0.5584	0.9794	0.159
H 	H 	0.7208	0.5276	0.0164	0.149
H 	H 	0.6846	0.5132	0.0176	0.154
H 	H 	0.8244	0.0456	0.5338	0.036
H 	H 	0.8188	0.0472	0.648	0.02
H 	H 	0.746	0.0412	0.6848	0.031
H 	H 	0.7147	0.1115	0.5327	0.197
H 	H 	0.7572	0.0808	0.503	0.193
H 	H 	0.7075	0.0795	0.5199	0.197
H 	H 	0.7666	0.9794	0.5584	0.159
H 	H 	0.7352	0.0164	0.5276	0.149
H 	H 	0.7846	0.0176	0.5132	0.154
H 	H 	0.5338	0.5962	0.8244	0.036
H 	H 	0.648	0.486	0.8188	0.02
H 	H 	0.6848	0.528	0.746	0.031
H 	H 	0.5327	0.6411	0.7147	0.197
H 	H 	0.503	0.659	0.7572	0.193
H 	H 	0.5199	0.6931	0.7075	0.197
H 	H 	0.5584	0.6956	0.7666	0.159
H 	H 	0.5276	0.7208	0.7352	0.149
H 	H 	0.5132	0.6846	0.7846	0.154
H 	H 	0.0456	0.8244	0.5962	0.036
H 	H 	0.0472	0.8188	0.486	0.02
H 	H 	0.0412	0.746	0.528	0.031
H 	H 	0.1115	0.7147	0.6411	0.197
H 	H 	0.0808	0.7572	0.659	0.193
H 	H 	0.0795	0.7075	0.6931	0.197
H 	H 	0.9794	0.7666	0.6956	0.159
H 	H 	0.0164	0.7352	0.7208	0.149
H 	H 	0.0176	0.7846	0.6846	0.154
H 	H 	0.5962	0.0456	0.8244	0.036
H 	H 	0.486	0.0472	0.8188	0.02
H 	H 	0.528	0.0412	0.746	0.031
H 	H 	0.6411	0.1115	0.7147	0.197
H 	H 	0.659	0.0808	0.7572	0.193
H 	H 	0.6931	0.0795	0.7075	0.197
H 	H 	0.6956	0.9794	0.7666	0.159
H 	H 	0.7208	0.0164	0.7352	0.149
H 	H 	0.6846	0.0176	0.7846	0.154
H 	H 	0.8244	0.5338	0.5962	0.036
H 	H 	0.8188	0.648	0.486	0.02
H 	H 	0.746	0.6848	0.528	0.031
H 	H 	0.7147	0.5327	0.6411	0.197
H 	H 	0.7572	0.503	0.659	0.193
H 	H 	0.7075	0.5199	0.6931	0.197
H 	H 	0.7666	0.5584	0.6956	0.159
H 	H 	0.7352	0.5276	0.7208	0.149
H 	H 	0.7846	0.5132	0.6846	0.154
H 	H 	0.5338	0.8244	0.0456	0.036
H 	H 	0.648	0.8188	0.0472	0.02
H 	H 	0.6848	0.746	0.0412	0.031
H 	H 	0.5327	0.7147	0.1115	0.197
H 	H 	0.503	0.7572	0.0808	0.193
H 	H 	0.5199	0.7075	0.0795	0.197
H 	H 	0.5584	0.7666	0.9794	0.159
H 	H 	0.5276	0.7352	0.0164	0.149
H 	H 	0.5132	0.7846	0.0176	0.154
H 	H 	0.0456	0.5962	0.5338	0.036
H 	H 	0.0472	0.486	0.648	0.02
H 	H 	0.0412	0.528	0.6848	0.031
H 	H 	0.1115	0.6411	0.5327	0.197
H 	H 	0.0808	0.659	0.503	0.193
H 	H 	0.0795	0.6931	0.5199	0.197
H 	H 	0.9794	0.6956	0.5584	0.159
H 	H 	0.0164	0.7208	0.5276	0.149
H 	H 	0.0176	0.6846	0.5132	0.154
H 	H 	0.6756	0.9038	0.9662	0.036
H 	H 	0.6812	0.014	0.852	0.02
H 	H 	0.754	0.972	0.8152	0.031
H 	H 	0.7853	0.8589	0.9673	0.197
H 	H 	0.7428	0.841	0.997	0.193
H 	H 	0.7925	0.8069	0.9801	0.197
H 	H 	0.7334	0.8044	0.9416	0.159
H 	H 	0.7648	0.7792	0.9724	0.149
H 	H 	0.7154	0.8154	0.9868	0.154
H 	H 	0.9038	0.6756	0.4544	0.036
H 	H 	0.014	0.6812	0.4528	0.02
H 	H 	0.972	0.754	0.4588	0.031
H 	H 	0.8589	0.7853	0.3885	0.197
H 	H 	0.841	0.7428	0.4192	0.193
H 	H 	0.8069	0.7925	0.4205	0.197
H 	H 	0.8044	0.7334	0.5206	0.159
H 	H 	0.7792	0.7648	0.4836	0.149
H 	H 	0.8154	0.7154	0.4824	0.154
H 	H 	0.4544	0.9662	0.9038	0.036
H 	H 	0.4528	0.852	0.014	0.02
H 	H 	0.4588	0.8152	0.972	0.031
H 	H 	0.3885	0.9673	0.8589	0.197
H 	H 	0.4192	0.997	0.841	0.193
H 	H 	0.4205	0.9801	0.8069	0.197
H 	H 	0.5206	0.9416	0.8044	0.159
H 	H 	0.4836	0.9724	0.7792	0.149
H 	H 	0.4824	0.9868	0.8154	0.154
H 	H 	0.9662	0.4544	0.6756	0.036
H 	H 	0.852	0.4528	0.6812	0.02
H 	H 	0.8152	0.4588	0.754	0.031
H 	H 	0.9673	0.3885	0.7853	0.197
H 	H 	0.997	0.4192	0.7428	0.193
H 	H 	0.9801	0.4205	0.7925	0.197
H 	H 	0.9416	0.5206	0.7334	0.159
H 	H 	0.9724	0.4836	0.7648	0.149
H 	H 	0.9868	0.4824	0.7154	0.154
H 	H 	0.9662	0.9038	0.4544	0.036
H 	H 	0.852	0.014	0.4528	0.02
H 	H 	0.8152	0.972	0.4588	0.031
H 	H 	0.9673	0.8589	0.3885	0.197
H 	H 	0.997	0.841	0.4192	0.193
H 	H 	0.9801	0.8069	0.4205	0.197
H 	H 	0.9416	0.8044	0.5206	0.159
H 	H 	0.9724	0.7792	0.4836	0.149
H 	H 	0.9868	0.8154	0.4824	0.154
H 	H 	0.4544	0.6756	0.9662	0.036
H 	H 	0.4528	0.6812	0.852	0.02
H 	H 	0.4588	0.754	0.8152	0.031
H 	H 	0.3885	0.7853	0.9673	0.197
H 	H 	0.4192	0.7428	0.997	0.193
H 	H 	0.4205	0.7925	0.9801	0.197
H 	H 	0.5206	0.7334	0.9416	0.159
H 	H 	0.4836	0.7648	0.9724	0.149
H 	H 	0.4824	0.7154	0.9868	0.154
H 	H 	0.9038	0.9662	0.6756	0.036
H 	H 	0.014	0.852	0.6812	0.02
H 	H 	0.972	0.8152	0.754	0.031
H 	H 	0.8589	0.9673	0.7853	0.197
H 	H 	0.841	0.997	0.7428	0.193
H 	H 	0.8069	0.9801	0.7925	0.197
H 	H 	0.8044	0.9416	0.7334	0.159
H 	H 	0.7792	0.9724	0.7648	0.149
H 	H 	0.8154	0.9868	0.7154	0.154
H 	H 	0.6756	0.4544	0.9038	0.036
H 	H 	0.6812	0.4528	0.014	0.02
H 	H 	0.754	0.4588	0.972	0.031
H 	H 	0.7853	0.3885	0.8589	0.197
H 	H 	0.7428	0.4192	0.841	0.193
H 	H 	0.7925	0.4205	0.8069	0.197
H 	H 	0.7334	0.5206	0.8044	0.159
H 	H 	0.7648	0.4836	0.7792	0.149
H 	H 	0.7154	0.4824	0.8154	0.154
H 	H 	0.4544	0.9038	0.6756	0.036
H 	H 	0.4528	0.014	0.6812	0.02
H 	H 	0.4588	0.972	0.754	0.031
H 	H 	0.3885	0.8589	0.7853	0.197
H 	H 	0.4192	0.841	0.7428	0.193
H 	H 	0.4205	0.8069	0.7925	0.197
H 	H 	0.5206	0.8044	0.7334	0.159
H 	H 	0.4836	0.7792	0.7648	0.149
H 	H 	0.4824	0.8154	0.7154	0.154
H 	H 	0.9662	0.6756	0.9038	0.036
H 	H 	0.852	0.6812	0.014	0.02
H 	H 	0.8152	0.754	0.972	0.031
H 	H 	0.9673	0.7853	0.8589	0.197
H 	H 	0.997	0.7428	0.841	0.193
H 	H 	0.9801	0.7925	0.8069	0.197
H 	H 	0.9416	0.7334	0.8044	0.159
H 	H 	0.9724	0.7648	0.7792	0.149
H 	H 	0.9868	0.7154	0.8154	0.154
H 	H 	0.6756	0.9662	0.4544	0.036
H 	H 	0.6812	0.852	0.4528	0.02
H 	H 	0.754	0.8152	0.4588	0.031
H 	H 	0.7853	0.9673	0.3885	0.197
H 	H 	0.7428	0.997	0.4192	0.193
H 	H 	0.7925	0.9801	0.4205	0.197
H 	H 	0.7334	0.9416	0.5206	0.159
H 	H 	0.7648	0.9724	0.4836	0.149
H 	H 	0.7154	0.9868	0.4824	0.154
H 	H 	0.9038	0.4544	0.9662	0.036
H 	H 	0.014	0.4528	0.852	0.02
H 	H 	0.972	0.4588	0.8152	0.031
H 	H 	0.8589	0.3885	0.9673	0.197
H 	H 	0.841	0.4192	0.997	0.193
H 	H 	0.8069	0.4205	0.9801	0.197
H 	H 	0.8044	0.5206	0.9416	0.159
H 	H 	0.7792	0.4836	0.9724	0.149
H 	H 	0.8154	0.4824	0.9868	0.154
C 	C 	0.48028	0.13056	0.44446	0.288
C 	C 	0.41781	0.19183	0.43581	0.035
C 	C 	0.4627	0.17142	0.41246	-0.098
C 	C 	0.48343	0.19509	0.36787	0.024
C 	C 	0.45927	0.23917	0.34661	-0.102
C 	C 	0.41531	0.26153	0.37209	0.045
C 	C 	0.39347	0.23591	0.41479	-0.14
C 	C 	0.34972	0.26486	0.4309	0.296
C 	C 	0.34587	0.30857	0.39911	-0.118
C 	C 	0.38489	0.30565	0.36095	0.022
C 	C 	0.33814	0.27196	0.47222	-0.601
C 	C 	0.30774	0.2423	0.46106	-0.478
C 	C 	0.13056	0.48028	0.9447	0.288
C 	C 	0.19183	0.41781	0.95455	0.035
C 	C 	0.17142	0.4627	0.95342	-0.097
C 	C 	0.19509	0.48343	0.95361	0.024
C 	C 	0.23917	0.45927	0.95495	-0.102
C 	C 	0.26153	0.41531	0.95107	0.045
C 	C 	0.23591	0.39347	0.95583	-0.14
C 	C 	0.26486	0.34972	0.95452	0.296
C 	C 	0.30857	0.34587	0.94645	-0.118
C 	C 	0.30565	0.38489	0.94851	0.022
C 	C 	0.27196	0.33814	0.91768	-0.601
C 	C 	0.2423	0.30774	0.9889	-0.477
C 	C 	0.44446	0.9447	0.48028	0.288
C 	C 	0.43581	0.95455	0.41781	0.035
C 	C 	0.41246	0.95342	0.4627	-0.098
C 	C 	0.36787	0.95361	0.48343	0.024
C 	C 	0.34661	0.95495	0.45927	-0.102
C 	C 	0.37209	0.95107	0.41531	0.045
C 	C 	0.41479	0.95583	0.39347	-0.14
C 	C 	0.4309	0.95452	0.34972	0.296
C 	C 	0.39911	0.94645	0.34587	-0.118
C 	C 	0.36095	0.94851	0.38489	0.022
C 	C 	0.47222	0.91768	0.33814	-0.601
C 	C 	0.46106	0.9889	0.30774	-0.477
C 	C 	0.9447	0.44446	0.13056	0.288
C 	C 	0.95455	0.43581	0.19183	0.035
C 	C 	0.95342	0.41246	0.17142	-0.097
C 	C 	0.95361	0.36787	0.19509	0.024
C 	C 	0.95495	0.34661	0.23917	-0.102
C 	C 	0.95107	0.37209	0.26153	0.045
C 	C 	0.95583	0.41479	0.23591	-0.14
C 	C 	0.95452	0.4309	0.26486	0.296
C 	C 	0.94645	0.39911	0.30857	-0.118
C 	C 	0.94851	0.36095	0.30565	0.022
C 	C 	0.91768	0.47222	0.27196	-0.601
C 	C 	0.9889	0.46106	0.2423	-0.477
C 	C 	0.48028	0.44446	0.9447	0.288
C 	C 	0.41781	0.43581	0.95455	0.035
C 	C 	0.4627	0.41246	0.95342	-0.098
C 	C 	0.48343	0.36787	0.95361	0.024
C 	C 	0.45927	0.34661	0.95495	-0.102
C 	C 	0.41531	0.37209	0.95107	0.045
C 	C 	0.39347	0.41479	0.95583	-0.14
C 	C 	0.34972	0.4309	0.95452	0.296
C 	C 	0.34587	0.39911	0.94645	-0.118
C 	C 	0.38489	0.36095	0.94851	0.022
C 	C 	0.33814	0.47222	0.91768	-0.601
C 	C 	0.30774	0.46106	0.9889	-0.477
C 	C 	0.13056	0.9447	0.44446	0.288
C 	C 	0.19183	0.95455	0.43581	0.035
C 	C 	0.17142	0.95342	0.41246	-0.097
C 	C 	0.19509	0.95361	0.36787	0.024
C 	C 	0.23917	0.95495	0.34661	-0.102
C 	C 	0.26153	0.95107	0.37209	0.045
C 	C 	0.23591	0.95583	0.41479	-0.14
C 	C 	0.26486	0.95452	0.4309	0.296
C 	C 	0.30857	0.94645	0.39911	-0.118
C 	C 	0.30565	0.94851	0.36095	0.022
C 	C 	0.27196	0.91768	0.47222	-0.601
C 	C 	0.2423	0.9889	0.46106	-0.477
C 	C 	0.44446	0.48028	0.13056	0.288
C 	C 	0.43581	0.41781	0.19183	0.035
C 	C 	0.41246	0.4627	0.17142	-0.098
C 	C 	0.36787	0.48343	0.19509	0.024
C 	C 	0.34661	0.45927	0.23917	-0.102
C 	C 	0.37209	0.41531	0.26153	0.045
C 	C 	0.41479	0.39347	0.23591	-0.14
C 	C 	0.4309	0.34972	0.26486	0.296
C 	C 	0.39911	0.34587	0.30857	-0.118
C 	C 	0.36095	0.38489	0.30565	0.022
C 	C 	0.47222	0.33814	0.27196	-0.601
C 	C 	0.46106	0.30774	0.2423	-0.478
C 	C 	0.9447	0.13056	0.48028	0.288
C 	C 	0.95455	0.19183	0.41781	0.035
C 	C 	0.95342	0.17142	0.4627	-0.097
C 	C 	0.95361	0.19509	0.48343	0.024
C 	C 	0.95495	0.23917	0.45927	-0.102
C 	C 	0.95107	0.26153	0.41531	0.045
C 	C 	0.95583	0.23591	0.39347	-0.14
C 	C 	0.95452	0.26486	0.34972	0.296
C 	C 	0.94645	0.30857	0.34587	-0.118
C 	C 	0.94851	0.30565	0.38489	0.022
C 	C 	0.91768	0.27196	0.33814	-0.601
C 	C 	0.9889	0.2423	0.30774	-0.477
C 	C 	0.48028	0.9447	0.13056	0.288
C 	C 	0.41781	0.95455	0.19183	0.035
C 	C 	0.4627	0.95342	0.17142	-0.097
C 	C 	0.48343	0.95361	0.19509	0.024
C 	C 	0.45927	0.95495	0.23917	-0.102
C 	C 	0.41531	0.95107	0.26153	0.045
C 	C 	0.39347	0.95583	0.23591	-0.14
C 	C 	0.34972	0.95452	0.26486	0.296
C 	C 	0.34587	0.94645	0.30857	-0.118
C 	C 	0.38489	0.94851	0.30565	0.022
C 	C 	0.33814	0.91768	0.27196	-0.601
C 	C 	0.30774	0.9889	0.2423	-0.477
C 	C 	0.13056	0.44446	0.48028	0.288
C 	C 	0.19183	0.43581	0.41781	0.035
C 	C 	0.17142	0.41246	0.4627	-0.098
C 	C 	0.19509	0.36787	0.48343	0.024
C 	C 	0.23917	0.34661	0.45927	-0.102
C 	C 	0.26153	0.37209	0.41531	0.045
C 	C 	0.23591	0.41479	0.39347	-0.14
C 	C 	0.26486	0.4309	0.34972	0.296
C 	C 	0.30857	0.39911	0.34587	-0.118
C 	C 	0.30565	0.36095	0.38489	0.022
C 	C 	0.27196	0.47222	0.33814	-0.601
C 	C 	0.2423	0.46106	0.30774	-0.478
C 	C 	0.44446	0.13056	0.9447	0.288
C 	C 	0.43581	0.19183	0.95455	0.035
C 	C 	0.41246	0.17142	0.95342	-0.097
C 	C 	0.36787	0.19509	0.95361	0.024
C 	C 	0.34661	0.23917	0.95495	-0.102
C 	C 	0.37209	0.26153	0.95107	0.045
C 	C 	0.41479	0.23591	0.95583	-0.14
C 	C 	0.4309	0.26486	0.95452	0.296
C 	C 	0.39911	0.30857	0.94645	-0.118
C 	C 	0.36095	0.30565	0.94851	0.022
C 	C 	0.47222	0.27196	0.91768	-0.601
C 	C 	0.46106	0.2423	0.9889	-0.477
C 	C 	0.9447	0.48028	0.44446	0.288
C 	C 	0.95455	0.41781	0.43581	0.035
C 	C 	0.95342	0.4627	0.41246	-0.098
C 	C 	0.95361	0.48343	0.36787	0.024
C 	C 	0.95495	0.45927	0.34661	-0.102
C 	C 	0.95107	0.41531	0.37209	0.045
C 	C 	0.95583	0.39347	0.41479	-0.14
C 	C 	0.95452	0.34972	0.4309	0.296
C 	C 	0.94645	0.34587	0.39911	-0.118
C 	C 	0.94851	0.38489	0.36095	0.022
C 	C 	0.91768	0.33814	0.47222	-0.601
C 	C 	0.9889	0.30774	0.46106	-0.477
C 	C 	0.36944	0.01972	0.05554	0.288
C 	C 	0.30817	0.08219	0.06419	0.035
C 	C 	0.32858	0.0373	0.08754	-0.097
C 	C 	0.30491	0.01657	0.13213	0.023
C 	C 	0.26083	0.04073	0.15339	-0.101
C 	C 	0.23847	0.08469	0.12791	0.045
C 	C 	0.26409	0.10653	0.08521	-0.139
C 	C 	0.23514	0.15028	0.0691	0.295
C 	C 	0.19143	0.15413	0.10089	-0.118
C 	C 	0.19435	0.11511	0.13905	0.022
C 	C 	0.22804	0.16186	0.02778	-0.601
C 	C 	0.2577	0.19226	0.03894	-0.477
C 	C 	0.01972	0.36944	0.5553	0.288
C 	C 	0.08219	0.30817	0.54545	0.035
C 	C 	0.0373	0.32858	0.54658	-0.097
C 	C 	0.01657	0.30491	0.54639	0.024
C 	C 	0.04073	0.26083	0.54505	-0.102
C 	C 	0.08469	0.23847	0.54893	0.045
C 	C 	0.10653	0.26409	0.54417	-0.14
C 	C 	0.15028	0.23514	0.54548	0.296
C 	C 	0.15413	0.19143	0.55355	-0.118
C 	C 	0.11511	0.19435	0.55149	0.022
C 	C 	0.16186	0.22804	0.58232	-0.601
C 	C 	0.19226	0.2577	0.5111	-0.478
C 	C 	0.5553	0.05554	0.01972	0.288
C 	C 	0.54545	0.06419	0.08219	0.035
C 	C 	0.54658	0.08754	0.0373	-0.097
C 	C 	0.54639	0.13213	0.01657	0.024
C 	C 	0.54505	0.15339	0.04073	-0.102
C 	C 	0.54893	0.12791	0.08469	0.045
C 	C 	0.54417	0.08521	0.10653	-0.14
C 	C 	0.54548	0.0691	0.15028	0.296
C 	C 	0.55355	0.10089	0.15413	-0.118
C 	C 	0.55149	0.13905	0.11511	0.022
C 	C 	0.58232	0.02778	0.16186	-0.601
C 	C 	0.5111	0.03894	0.19226	-0.478
C 	C 	0.05554	0.5553	0.36944	0.288
C 	C 	0.06419	0.54545	0.30817	0.035
C 	C 	0.08754	0.54658	0.32858	-0.098
C 	C 	0.13213	0.54639	0.30491	0.024
C 	C 	0.15339	0.54505	0.26083	-0.102
C 	C 	0.12791	0.54893	0.23847	0.045
C 	C 	0.08521	0.54417	0.26409	-0.14
C 	C 	0.0691	0.54548	0.23514	0.296
C 	C 	0.10089	0.55355	0.19143	-0.118
C 	C 	0.13905	0.55149	0.19435	0.022
C 	C 	0.02778	0.58232	0.22804	-0.601
C 	C 	0.03894	0.5111	0.2577	-0.478
C 	C 	0.05554	0.01972	0.5553	0.288
C 	C 	0.06419	0.08219	0.54545	0.035
C 	C 	0.08754	0.0373	0.54658	-0.097
C 	C 	0.13213	0.01657	0.54639	0.024
C 	C 	0.15339	0.04073	0.54505	-0.102
C 	C 	0.12791	0.08469	0.54893	0.045
C 	C 	0.08521	0.10653	0.54417	-0.14
C 	C 	0.0691	0.15028	0.54548	0.296
C 	C 	0.10089	0.15413	0.55355	-0.118
C 	C 	0.13905	0.11511	0.55149	0.022
C 	C 	0.02778	0.16186	0.58232	-0.601
C 	C 	0.03894	0.19226	0.5111	-0.478
C 	C 	0.5553	0.36944	0.05554	0.288
C 	C 	0.54545	0.30817	0.06419	0.035
C 	C 	0.54658	0.32858	0.08754	-0.098
C 	C 	0.54639	0.30491	0.13213	0.024
C 	C 	0.54505	0.26083	0.15339	-0.102
C 	C 	0.54893	0.23847	0.12791	0.045
C 	C 	0.54417	0.26409	0.08521	-0.14
C 	C 	0.54548	0.23514	0.0691	0.296
C 	C 	0.55355	0.19143	0.10089	-0.118
C 	C 	0.55149	0.19435	0.13905	0.022
C 	C 	0.58232	0.22804	0.02778	-0.601
C 	C 	0.5111	0.2577	0.03894	-0.478
C 	C 	0.01972	0.05554	0.36944	0.288
C 	C 	0.08219	0.06419	0.30817	0.035
C 	C 	0.0373	0.08754	0.32858	-0.097
C 	C 	0.01657	0.13213	0.30491	0.023
C 	C 	0.04073	0.15339	0.26083	-0.101
C 	C 	0.08469	0.12791	0.23847	0.045
C 	C 	0.10653	0.08521	0.26409	-0.139
C 	C 	0.15028	0.0691	0.23514	0.295
C 	C 	0.15413	0.10089	0.19143	-0.118
C 	C 	0.11511	0.13905	0.19435	0.022
C 	C 	0.16186	0.02778	0.22804	-0.601
C 	C 	0.19226	0.03894	0.2577	-0.477
C 	C 	0.36944	0.5553	0.01972	0.288
C 	C 	0.30817	0.54545	0.08219	0.035
C 	C 	0.32858	0.54658	0.0373	-0.097
C 	C 	0.30491	0.54639	0.01657	0.024
C 	C 	0.26083	0.54505	0.04073	-0.102
C 	C 	0.23847	0.54893	0.08469	0.045
C 	C 	0.26409	0.54417	0.10653	-0.14
C 	C 	0.23514	0.54548	0.15028	0.296
C 	C 	0.19143	0.55355	0.15413	-0.118
C 	C 	0.19435	0.55149	0.11511	0.022
C 	C 	0.22804	0.58232	0.16186	-0.601
C 	C 	0.2577	0.5111	0.19226	-0.478
C 	C 	0.5553	0.01972	0.36944	0.288
C 	C 	0.54545	0.08219	0.30817	0.035
C 	C 	0.54658	0.0373	0.32858	-0.097
C 	C 	0.54639	0.01657	0.30491	0.024
C 	C 	0.54505	0.04073	0.26083	-0.102
C 	C 	0.54893	0.08469	0.23847	0.045
C 	C 	0.54417	0.10653	0.26409	-0.14
C 	C 	0.54548	0.15028	0.23514	0.296
C 	C 	0.55355	0.15413	0.19143	-0.118
C 	C 	0.55149	0.11511	0.19435	0.022
C 	C 	0.58232	0.16186	0.22804	-0.601
C 	C 	0.5111	0.19226	0.2577	-0.478
C 	C 	0.05554	0.36944	0.01972	0.288
C 	C 	0.06419	0.30817	0.08219	0.035
C 	C 	0.08754	0.32858	0.0373	-0.097
C 	C 	0.13213	0.30491	0.01657	0.023
C 	C 	0.15339	0.26083	0.04073	-0.101
C 	C 	0.12791	0.23847	0.08469	0.045
C 	C 	0.08521	0.26409	0.10653	-0.139
C 	C 	0.0691	0.23514	0.15028	0.295
C 	C 	0.10089	0.19143	0.15413	-0.118
C 	C 	0.13905	0.19435	0.11511	0.022
C 	C 	0.02778	0.22804	0.16186	-0.601
C 	C 	0.03894	0.2577	0.19226	-0.477
C 	C 	0.36944	0.05554	0.5553	0.288
C 	C 	0.30817	0.06419	0.54545	0.035
C 	C 	0.32858	0.08754	0.54658	-0.098
C 	C 	0.30491	0.13213	0.54639	0.024
C 	C 	0.26083	0.15339	0.54505	-0.102
C 	C 	0.23847	0.12791	0.54893	0.045
C 	C 	0.26409	0.08521	0.54417	-0.14
C 	C 	0.23514	0.0691	0.54548	0.296
C 	C 	0.19143	0.10089	0.55355	-0.118
C 	C 	0.19435	0.13905	0.55149	0.022
C 	C 	0.22804	0.02778	0.58232	-0.601
C 	C 	0.2577	0.03894	0.5111	-0.478
C 	C 	0.01972	0.5553	0.05554	0.288
C 	C 	0.08219	0.54545	0.06419	0.035
C 	C 	0.0373	0.54658	0.08754	-0.097
C 	C 	0.01657	0.54639	0.13213	0.024
C 	C 	0.04073	0.54505	0.15339	-0.102
C 	C 	0.08469	0.54893	0.12791	0.045
C 	C 	0.10653	0.54417	0.08521	-0.14
C 	C 	0.15028	0.54548	0.0691	0.296
C 	C 	0.15413	0.55355	0.10089	-0.118
C 	C 	0.11511	0.55149	0.13905	0.022
C 	C 	0.16186	0.58232	0.02778	-0.601
C 	C 	0.19226	0.5111	0.03894	-0.478
C 	C 	0.51972	0.86944	0.55554	0.288
C 	C 	0.58219	0.80817	0.56419	0.035
C 	C 	0.5373	0.82858	0.58754	-0.098
C 	C 	0.51657	0.80491	0.63213	0.024
C 	C 	0.54073	0.76083	0.65339	-0.102
C 	C 	0.58469	0.73847	0.62791	0.045
C 	C 	0.60653	0.76409	0.58521	-0.14
C 	C 	0.65028	0.73514	0.5691	0.296
C 	C 	0.65413	0.69143	0.60089	-0.118
C 	C 	0.61511	0.69435	0.63905	0.022
C 	C 	0.66186	0.72804	0.52778	-0.601
C 	C 	0.69226	0.7577	0.53894	-0.478
C 	C 	0.86944	0.51972	0.0553	0.288
C 	C 	0.80817	0.58219	0.04545	0.035
C 	C 	0.82858	0.5373	0.04658	-0.097
C 	C 	0.80491	0.51657	0.04639	0.024
C 	C 	0.76083	0.54073	0.04505	-0.102
C 	C 	0.73847	0.58469	0.04893	0.045
C 	C 	0.76409	0.60653	0.04417	-0.14
C 	C 	0.73514	0.65028	0.04548	0.296
C 	C 	0.69143	0.65413	0.05355	-0.118
C 	C 	0.69435	0.61511	0.05149	0.022
C 	C 	0.72804	0.66186	0.08232	-0.601
C 	C 	0.7577	0.69226	0.0111	-0.477
C 	C 	0.55554	0.0553	0.51972	0.288
C 	C 	0.56419	0.04545	0.58219	0.035
C 	C 	0.58754	0.04658	0.5373	-0.098
C 	C 	0.63213	0.04639	0.51657	0.024
C 	C 	0.65339	0.04505	0.54073	-0.102
C 	C 	0.62791	0.04893	0.58469	0.045
C 	C 	0.58521	0.04417	0.60653	-0.14
C 	C 	0.5691	0.04548	0.65028	0.296
C 	C 	0.60089	0.05355	0.65413	-0.118
C 	C 	0.63905	0.05149	0.61511	0.022
C 	C 	0.52778	0.08232	0.66186	-0.601
C 	C 	0.53894	0.0111	0.69226	-0.477
C 	C 	0.0553	0.55554	0.86944	0.288
C 	C 	0.04545	0.56419	0.80817	0.035
C 	C 	0.04658	0.58754	0.82858	-0.097
C 	C 	0.04639	0.63213	0.80491	0.024
C 	C 	0.04505	0.65339	0.76083	-0.102
C 	C 	0.04893	0.62791	0.73847	0.045
C 	C 	0.04417	0.58521	0.76409	-0.14
C 	C 	0.04548	0.5691	0.73514	0.296
C 	C 	0.05355	0.60089	0.69143	-0.118
C 	C 	0.05149	0.63905	0.69435	0.022
C 	C 	0.08232	0.52778	0.72804	-0.601
C 	C 	0.0111	0.53894	0.7577	-0.477
C 	C 	0.51972	0.55554	0.0553	0.288
C 	C 	0.58219	0.56419	0.04545	0.035
C 	C 	0.5373	0.58754	0.04658	-0.098
C 	C 	0.51657	0.63213	0.04639	0.024
C 	C 	0.54073	0.65339	0.04505	-0.102
C 	C 	0.58469	0.62791	0.04893	0.045
C 	C 	0.60653	0.58521	0.04417	-0.14
C 	C 	0.65028	0.5691	0.04548	0.296
C 	C 	0.65413	0.60089	0.05355	-0.118
C 	C 	0.61511	0.63905	0.05149	0.022
C 	C 	0.66186	0.52778	0.08232	-0.601
C 	C 	0.69226	0.53894	0.0111	-0.477
C 	C 	0.86944	0.0553	0.55554	0.288
C 	C 	0.80817	0.04545	0.56419	0.035
C 	C 	0.82858	0.04658	0.58754	-0.097
C 	C 	0.80491	0.04639	0.63213	0.024
C 	C 	0.76083	0.04505	0.65339	-0.102
C 	C 	0.73847	0.04893	0.62791	0.045
C 	C 	0.76409	0.04417	0.58521	-0.14
C 	C 	0.73514	0.04548	0.5691	0.296
C 	C 	0.69143	0.05355	0.60089	-0.118
C 	C 	0.69435	0.05149	0.63905	0.022
C 	C 	0.72804	0.08232	0.52778	-0.601
C 	C 	0.7577	0.0111	0.53894	-0.477
C 	C 	0.55554	0.51972	0.86944	0.288
C 	C 	0.56419	0.58219	0.80817	0.035
C 	C 	0.58754	0.5373	0.82858	-0.098
C 	C 	0.63213	0.51657	0.80491	0.024
C 	C 	0.65339	0.54073	0.76083	-0.102
C 	C 	0.62791	0.58469	0.73847	0.045
C 	C 	0.58521	0.60653	0.76409	-0.14
C 	C 	0.5691	0.65028	0.73514	0.296
C 	C 	0.60089	0.65413	0.69143	-0.118
C 	C 	0.63905	0.61511	0.69435	0.022
C 	C 	0.52778	0.66186	0.72804	-0.601
C 	C 	0.53894	0.69226	0.7577	-0.478
C 	C 	0.0553	0.86944	0.51972	0.288
C 	C 	0.04545	0.80817	0.58219	0.035
C 	C 	0.04658	0.82858	0.5373	-0.097
C 	C 	0.04639	0.80491	0.51657	0.024
C 	C 	0.04505	0.76083	0.54073	-0.102
C 	C 	0.04893	0.73847	0.58469	0.045
C 	C 	0.04417	0.76409	0.60653	-0.14
C 	C 	0.04548	0.73514	0.65028	0.296
C 	C 	0.05355	0.69143	0.65413	-0.118
C 	C 	0.05149	0.69435	0.61511	0.022
C 	C 	0.08232	0.72804	0.66186	-0.601
C 	C 	0.0111	0.7577	0.69226	-0.477
C 	C 	0.51972	0.0553	0.86944	0.288
C 	C 	0.58219	0.04545	0.80817	0.035
C 	C 	0.5373	0.04658	0.82858	-0.097
C 	C 	0.51657	0.04639	0.80491	0.024
C 	C 	0.54073	0.04505	0.76083	-0.102
C 	C 	0.58469	0.04893	0.73847	0.045
C 	C 	0.60653	0.04417	0.76409	-0.14
C 	C 	0.65028	0.04548	0.73514	0.296
C 	C 	0.65413	0.05355	0.69143	-0.118
C 	C 	0.61511	0.05149	0.69435	0.022
C 	C 	0.66186	0.08232	0.72804	-0.601
C 	C 	0.69226	0.0111	0.7577	-0.477
C 	C 	0.86944	0.55554	0.51972	0.288
C 	C 	0.80817	0.56419	0.58219	0.035
C 	C 	0.82858	0.58754	0.5373	-0.098
C 	C 	0.80491	0.63213	0.51657	0.024
C 	C 	0.76083	0.65339	0.54073	-0.102
C 	C 	0.73847	0.62791	0.58469	0.045
C 	C 	0.76409	0.58521	0.60653	-0.14
C 	C 	0.73514	0.5691	0.65028	0.296
C 	C 	0.69143	0.60089	0.65413	-0.118
C 	C 	0.69435	0.63905	0.61511	0.022
C 	C 	0.72804	0.52778	0.66186	-0.601
C 	C 	0.7577	0.53894	0.69226	-0.478
C 	C 	0.55554	0.86944	0.0553	0.288
C 	C 	0.56419	0.80817	0.04545	0.035
C 	C 	0.58754	0.82858	0.04658	-0.097
C 	C 	0.63213	0.80491	0.04639	0.024
C 	C 	0.65339	0.76083	0.04505	-0.102
C 	C 	0.62791	0.73847	0.04893	0.045
C 	C 	0.58521	0.76409	0.04417	-0.14
C 	C 	0.5691	0.73514	0.04548	0.296
C 	C 	0.60089	0.69143	0.05355	-0.118
C 	C 	0.63905	0.69435	0.05149	0.022
C 	C 	0.52778	0.72804	0.08232	-0.601
C 	C 	0.53894	0.7577	0.0111	-0.477
C 	C 	0.0553	0.51972	0.55554	0.288
C 	C 	0.04545	0.58219	0.56419	0.035
C 	C 	0.04658	0.5373	0.58754	-0.098
C 	C 	0.04639	0.51657	0.63213	0.024
C 	C 	0.04505	0.54073	0.65339	-0.102
C 	C 	0.04893	0.58469	0.62791	0.045
C 	C 	0.04417	0.60653	0.58521	-0.14
C 	C 	0.04548	0.65028	0.5691	0.296
C 	C 	0.05355	0.65413	0.60089	-0.118
C 	C 	0.05149	0.61511	0.63905	0.022
C 	C 	0.08232	0.66186	0.52778	-0.601
C 	C 	0.0111	0.69226	0.53894	-0.477
C 	C 	0.63056	0.98028	0.94446	0.288
C 	C 	0.69183	0.91781	0.93581	0.035
C 	C 	0.67142	0.9627	0.91246	-0.097
C 	C 	0.69509	0.98343	0.86787	0.023
C 	C 	0.73917	0.95927	0.84661	-0.101
C 	C 	0.76153	0.91531	0.87209	0.045
C 	C 	0.73591	0.89347	0.91479	-0.139
C 	C 	0.76486	0.84972	0.9309	0.295
C 	C 	0.80857	0.84587	0.89911	-0.118
C 	C 	0.80565	0.88489	0.86095	0.022
C 	C 	0.77196	0.83814	0.97222	-0.601
C 	C 	0.7423	0.80774	0.96106	-0.477
C 	C 	0.98028	0.63056	0.4447	0.288
C 	C 	0.91781	0.69183	0.45455	0.035
C 	C 	0.9627	0.67142	0.45342	-0.097
C 	C 	0.98343	0.69509	0.45361	0.024
C 	C 	0.95927	0.73917	0.45495	-0.102
C 	C 	0.91531	0.76153	0.45107	0.045
C 	C 	0.89347	0.73591	0.45583	-0.14
C 	C 	0.84972	0.76486	0.45452	0.296
C 	C 	0.84587	0.80857	0.44645	-0.118
C 	C 	0.88489	0.80565	0.44851	0.022
C 	C 	0.83814	0.77196	0.41768	-0.601
C 	C 	0.80774	0.7423	0.4889	-0.478
C 	C 	0.4447	0.94446	0.98028	0.288
C 	C 	0.45455	0.93581	0.91781	0.035
C 	C 	0.45342	0.91246	0.9627	-0.097
C 	C 	0.45361	0.86787	0.98343	0.024
C 	C 	0.45495	0.84661	0.95927	-0.102
C 	C 	0.45107	0.87209	0.91531	0.045
C 	C 	0.45583	0.91479	0.89347	-0.14
C 	C 	0.45452	0.9309	0.84972	0.296
C 	C 	0.44645	0.89911	0.84587	-0.118
C 	C 	0.44851	0.86095	0.88489	0.022
C 	C 	0.41768	0.97222	0.83814	-0.601
C 	C 	0.4889	0.96106	0.80774	-0.478
C 	C 	0.94446	0.4447	0.63056	0.288
C 	C 	0.93581	0.45455	0.69183	0.035
C 	C 	0.91246	0.45342	0.67142	-0.098
C 	C 	0.86787	0.45361	0.69509	0.024
C 	C 	0.84661	0.45495	0.73917	-0.102
C 	C 	0.87209	0.45107	0.76153	0.045
C 	C 	0.91479	0.45583	0.73591	-0.14
C 	C 	0.9309	0.45452	0.76486	0.296
C 	C 	0.89911	0.44645	0.80857	-0.118
C 	C 	0.86095	0.44851	0.80565	0.022
C 	C 	0.97222	0.41768	0.77196	-0.601
C 	C 	0.96106	0.4889	0.7423	-0.478
C 	C 	0.94446	0.98028	0.4447	0.288
C 	C 	0.93581	0.91781	0.45455	0.035
C 	C 	0.91246	0.9627	0.45342	-0.097
C 	C 	0.86787	0.98343	0.45361	0.024
C 	C 	0.84661	0.95927	0.45495	-0.102
C 	C 	0.87209	0.91531	0.45107	0.045
C 	C 	0.91479	0.89347	0.45583	-0.14
C 	C 	0.9309	0.84972	0.45452	0.296
C 	C 	0.89911	0.84587	0.44645	-0.118
C 	C 	0.86095	0.88489	0.44851	0.022
C 	C 	0.97222	0.83814	0.41768	-0.601
C 	C 	0.96106	0.80774	0.4889	-0.478
C 	C 	0.4447	0.63056	0.94446	0.288
C 	C 	0.45455	0.69183	0.93581	0.035
C 	C 	0.45342	0.67142	0.91246	-0.098
C 	C 	0.45361	0.69509	0.86787	0.024
C 	C 	0.45495	0.73917	0.84661	-0.102
C 	C 	0.45107	0.76153	0.87209	0.045
C 	C 	0.45583	0.73591	0.91479	-0.14
C 	C 	0.45452	0.76486	0.9309	0.296
C 	C 	0.44645	0.80857	0.89911	-0.118
C 	C 	0.44851	0.80565	0.86095	0.022
C 	C 	0.41768	0.77196	0.97222	-0.601
C 	C 	0.4889	0.7423	0.96106	-0.478
C 	C 	0.98028	0.94446	0.63056	0.288
C 	C 	0.91781	0.93581	0.69183	0.035
C 	C 	0.9627	0.91246	0.67142	-0.097
C 	C 	0.98343	0.86787	0.69509	0.023
C 	C 	0.95927	0.84661	0.73917	-0.101
C 	C 	0.91531	0.87209	0.76153	0.045
C 	C 	0.89347	0.91479	0.73591	-0.139
C 	C 	0.84972	0.9309	0.76486	0.295
C 	C 	0.84587	0.89911	0.80857	-0.118
C 	C 	0.88489	0.86095	0.80565	0.022
C 	C 	0.83814	0.97222	0.77196	-0.601
C 	C 	0.80774	0.96106	0.7423	-0.477
C 	C 	0.63056	0.4447	0.98028	0.288
C 	C 	0.69183	0.45455	0.91781	0.035
C 	C 	0.67142	0.45342	0.9627	-0.097
C 	C 	0.69509	0.45361	0.98343	0.024
C 	C 	0.73917	0.45495	0.95927	-0.102
C 	C 	0.76153	0.45107	0.91531	0.045
C 	C 	0.73591	0.45583	0.89347	-0.14
C 	C 	0.76486	0.45452	0.84972	0.296
C 	C 	0.80857	0.44645	0.84587	-0.118
C 	C 	0.80565	0.44851	0.88489	0.022
C 	C 	0.77196	0.41768	0.83814	-0.601
C 	C 	0.7423	0.4889	0.80774	-0.478
C 	C 	0.4447	0.98028	0.63056	0.288
C 	C 	0.45455	0.91781	0.69183	0.035
C 	C 	0.45342	0.9627	0.67142	-0.097
C 	C 	0.45361	0.98343	0.69509	0.024
C 	C 	0.45495	0.95927	0.73917	-0.102
C 	C 	0.45107	0.91531	0.76153	0.045
C 	C 	0.45583	0.89347	0.73591	-0.14
C 	C 	0.45452	0.84972	0.76486	0.296
C 	C 	0.44645	0.84587	0.80857	-0.118
C 	C 	0.44851	0.88489	0.80565	0.022
C 	C 	0.41768	0.83814	0.77196	-0.601
C 	C 	0.4889	0.80774	0.7423	-0.478
C 	C 	0.94446	0.63056	0.98028	0.288
C 	C 	0.93581	0.69183	0.91781	0.035
C 	C 	0.91246	0.67142	0.9627	-0.097
C 	C 	0.86787	0.69509	0.98343	0.023
C 	C 	0.84661	0.73917	0.95927	-0.101
C 	C 	0.87209	0.76153	0.91531	0.045
C 	C 	0.91479	0.73591	0.89347	-0.139
C 	C 	0.9309	0.76486	0.84972	0.295
C 	C 	0.89911	0.80857	0.84587	-0.118
C 	C 	0.86095	0.80565	0.88489	0.022
C 	C 	0.97222	0.77196	0.83814	-0.601
C 	C 	0.96106	0.7423	0.80774	-0.477
C 	C 	0.63056	0.94446	0.4447	0.288
C 	C 	0.69183	0.93581	0.45455	0.035
C 	C 	0.67142	0.91246	0.45342	-0.098
C 	C 	0.69509	0.86787	0.45361	0.024
C 	C 	0.73917	0.84661	0.45495	-0.102
C 	C 	0.76153	0.87209	0.45107	0.045
C 	C 	0.73591	0.91479	0.45583	-0.14
C 	C 	0.76486	0.9309	0.45452	0.296
C 	C 	0.80857	0.89911	0.44645	-0.118
C 	C 	0.80565	0.86095	0.44851	0.022
C 	C 	0.77196	0.97222	0.41768	-0.601
C 	C 	0.7423	0.96106	0.4889	-0.478
C 	C 	0.98028	0.4447	0.94446	0.288
C 	C 	0.91781	0.45455	0.93581	0.035
C 	C 	0.9627	0.45342	0.91246	-0.097
C 	C 	0.98343	0.45361	0.86787	0.024
C 	C 	0.95927	0.45495	0.84661	-0.102
C 	C 	0.91531	0.45107	0.87209	0.045
C 	C 	0.89347	0.45583	0.91479	-0.14
C 	C 	0.84972	0.45452	0.9309	0.296
C 	C 	0.84587	0.44645	0.89911	-0.118
C 	C 	0.88489	0.44851	0.86095	0.022
C 	C 	0.83814	0.41768	0.97222	-0.601
C 	C 	0.80774	0.4889	0.96106	-0.478
O 	O 	0.52293	0.10809	0.42007	-0.319
O 	O 	0.45024	0.11344	0.48802	-0.347
O 	O 	0.10809	0.52293	0.94891	-0.319
O 	O 	0.11344	0.45024	0.9483	-0.347
O 	O 	0.42007	0.94891	0.52293	-0.319
O 	O 	0.48802	0.9483	0.45024	-0.347
O 	O 	0.94891	0.42007	0.10809	-0.319
O 	O 	0.9483	0.48802	0.11344	-0.347
O 	O 	0.52293	0.42007	0.94891	-0.319
O 	O 	0.45024	0.48802	0.9483	-0.347
O 	O 	0.10809	0.94891	0.42007	-0.319
O 	O 	0.11344	0.9483	0.48802	-0.347
O 	O 	0.42007	0.52293	0.10809	-0.319
O 	O 	0.48802	0.45024	0.11344	-0.347
O 	O 	0.94891	0.10809	0.52293	-0.319
O 	O 	0.9483	0.11344	0.45024	-0.347
O 	O 	0.52293	0.94891	0.10809	-0.319
O 	O 	0.45024	0.9483	0.11344	-0.347
O 	O 	0.10809	0.42007	0.52293	-0.319
O 	O 	0.11344	0.48802	0.45024	-0.347
O 	O 	0.42007	0.10809	0.94891	-0.319
O 	O 	0.48802	0.11344	0.9483	-0.347
O 	O 	0.94891	0.52293	0.42007	-0.319
O 	O 	0.9483	0.45024	0.48802	-0.347
O 	O 	0.39191	0.97707	0.07993	-0.318
O 	O 	0.38656	0.04976	0.01198	-0.347
O 	O 	0.97707	0.39191	0.55109	-0.319
O 	O 	0.04976	0.38656	0.5517	-0.347
O 	O 	0.55109	0.07993	0.97707	-0.318
O 	O 	0.5517	0.01198	0.04976	-0.347
O 	O 	0.07993	0.55109	0.39191	-0.319
O 	O 	0.01198	0.5517	0.38656	-0.347
O 	O 	0.07993	0.97707	0.55109	-0.318
O 	O 	0.01198	0.04976	0.5517	-0.347
O 	O 	0.55109	0.39191	0.07993	-0.319
O 	O 	0.5517	0.38656	0.01198	-0.347
O 	O 	0.97707	0.07993	0.39191	-0.318
O 	O 	0.04976	0.01198	0.38656	-0.347
O 	O 	0.39191	0.55109	0.97707	-0.319
O 	O 	0.38656	0.5517	0.04976	-0.347
O 	O 	0.55109	0.97707	0.39191	-0.319
O 	O 	0.5517	0.04976	0.38656	-0.347
O 	O 	0.07993	0.39191	0.97707	-0.318
O 	O 	0.01198	0.38656	0.04976	-0.347
O 	O 	0.39191	0.07993	0.55109	-0.319
O 	O 	0.38656	0.01198	0.5517	-0.347
O 	O 	0.97707	0.55109	0.07993	-0.318
O 	O 	0.04976	0.5517	0.01198	-0.347
O 	O 	0.47707	0.89191	0.57993	-0.319
O 	O 	0.54976	0.88656	0.51198	-0.347
O 	O 	0.89191	0.47707	0.05109	-0.319
O 	O 	0.88656	0.54976	0.0517	-0.347
O 	O 	0.57993	0.05109	0.47707	-0.319
O 	O 	0.51198	0.0517	0.54976	-0.347
O 	O 	0.05109	0.57993	0.89191	-0.319
O 	O 	0.0517	0.51198	0.88656	-0.347
O 	O 	0.47707	0.57993	0.05109	-0.319
O 	O 	0.54976	0.51198	0.0517	-0.347
O 	O 	0.89191	0.05109	0.57993	-0.319
O 	O 	0.88656	0.0517	0.51198	-0.347
O 	O 	0.57993	0.47707	0.89191	-0.319
O 	O 	0.51198	0.54976	0.88656	-0.347
O 	O 	0.05109	0.89191	0.47707	-0.319
O 	O 	0.0517	0.88656	0.54976	-0.347
O 	O 	0.47707	0.05109	0.89191	-0.319
O 	O 	0.54976	0.0517	0.88656	-0.347
O 	O 	0.89191	0.57993	0.47707	-0.319
O 	O 	0.88656	0.51198	0.54976	-0.347
O 	O 	0.57993	0.89191	0.05109	-0.319
O 	O 	0.51198	0.88656	0.0517	-0.347
O 	O 	0.05109	0.47707	0.57993	-0.319
O 	O 	0.0517	0.54976	0.51198	-0.347
O 	O 	0.60809	0.02293	0.92007	-0.318
O 	O 	0.61344	0.95024	0.98802	-0.347
O 	O 	0.02293	0.60809	0.44891	-0.319
O 	O 	0.95024	0.61344	0.4483	-0.347
O 	O 	0.44891	0.92007	0.02293	-0.318
O 	O 	0.4483	0.98802	0.95024	-0.347
O 	O 	0.92007	0.44891	0.60809	-0.319
O 	O 	0.98802	0.4483	0.61344	-0.347
O 	O 	0.92007	0.02293	0.44891	-0.318
O 	O 	0.98802	0.95024	0.4483	-0.347
O 	O 	0.44891	0.60809	0.92007	-0.319
O 	O 	0.4483	0.61344	0.98802	-0.347
O 	O 	0.02293	0.92007	0.60809	-0.318
O 	O 	0.95024	0.98802	0.61344	-0.347
O 	O 	0.60809	0.44891	0.02293	-0.319
O 	O 	0.61344	0.4483	0.95024	-0.347
O 	O 	0.44891	0.02293	0.60809	-0.319
O 	O 	0.4483	0.95024	0.61344	-0.347
O 	O 	0.92007	0.60809	0.02293	-0.318
O 	O 	0.98802	0.61344	0.95024	-0.347
O 	O 	0.60809	0.92007	0.44891	-0.319
O 	O 	0.61344	0.98802	0.4483	-0.347
O 	O 	0.02293	0.44891	0.92007	-0.318
O 	O 	0.95024	0.4483	0.98802	-0.347
O 	O 	0.508	0.0518	0.492	-0.466
O 	O 	0.0518	0.508	0.9482	-0.466
O 	O 	0.492	0.9482	0.508	-0.466
O 	O 	0.9482	0.492	0.0518	-0.466
O 	O 	0.508	0.492	0.9482	-0.466
O 	O 	0.0518	0.9482	0.492	-0.466
O 	O 	0.492	0.508	0.0518	-0.466
O 	O 	0.9482	0.0518	0.508	-0.466
O 	O 	0.508	0.9482	0.0518	-0.466
O 	O 	0.0518	0.492	0.508	-0.466
O 	O 	0.492	0.0518	0.9482	-0.466
O 	O 	0.9482	0.508	0.492	-0.466
O 	O 	0.4482	0.992	0.008	-0.466
O 	O 	0.992	0.4482	0.5518	-0.466
O 	O 	0.5518	0.008	0.992	-0.466
O 	O 	0.008	0.5518	0.4482	-0.466
O 	O 	0.008	0.992	0.5518	-0.466
O 	O 	0.5518	0.4482	0.008	-0.466
O 	O 	0.992	0.008	0.4482	-0.466
O 	O 	0.4482	0.5518	0.992	-0.466
O 	O 	0.5518	0.992	0.4482	-0.466
O 	O 	0.008	0.4482	0.992	-0.466
O 	O 	0.4482	0.008	0.5518	-0.466
O 	O 	0.992	0.5518	0.008	-0.466
Fe	Fe	0.25	0.25	0.25	0.287
Fe	Fe	0.75	0.75	0.75	0.287
_end
