data_functionalizedCrystal
_audit_creation_method	'EQeq! by Chris Wilmer'
_symmetry_space_group_name_H-M	'P1'
_symmetry_Int_Tables_number	1
_symmetry_cell_setting	triclinic
loop_
_symmetry_equiv_pos_as_xyz
  x,y,z
_cell_length_a	4.5588
_cell_length_b	11.9018
_cell_length_c	15.8005
_cell_angle_alpha	85.912
_cell_angle_beta	84.811
_cell_angle_gamma	83.249
loop_
_atom_site_label
_atom_site_type_symbol
_atom_site_fract_x
_atom_site_fract_y
_atom_site_fract_z
_atom_site_charge
La	La	0.80833	0.77574	0.67367	2.189
La	La	0.19167	0.22426	0.32633	2.189
H 	H 	0.4427	0.1071	0.5613	0.133
H 	H 	0.4632	0.101	0.662	0.13
H 	H 	0.8922	0.1493	0.7391	0.118
H 	H 	0.1333	0.2354	0.7425	0.125
H 	H 	0.5603	0.3084	0.5302	0.097
H 	H 	0.7913	0.3994	0.5292	0.106
H 	H 	0.236	0.4502	0.6079	0.123
H 	H 	0.2675	0.4517	0.7078	0.111
H 	H 	0.0306	0.8516	0.9228	0.108
H 	H 	0.9696	0.9723	0.8724	0.129
H 	H 	0.5728	0.8218	0.9727	0.082
H 	H 	0.3068	0.8455	0.0442	0.109
H 	H 	0.5573	0.8929	0.4387	0.133
H 	H 	0.5368	0.899	0.338	0.13
H 	H 	0.1078	0.8507	0.2609	0.118
H 	H 	0.8667	0.7646	0.2575	0.125
H 	H 	0.4397	0.6916	0.4698	0.097
H 	H 	0.2087	0.6006	0.4708	0.106
H 	H 	0.764	0.5498	0.3921	0.123
H 	H 	0.7325	0.5483	0.2922	0.111
H 	H 	0.9694	0.1484	0.0772	0.108
H 	H 	0.0304	0.0277	0.1276	0.129
H 	H 	0.4272	0.1782	0.0273	0.082
H 	H 	0.6932	0.1545	0.9558	0.109
C 	C 	0.2143	0.9816	0.6245	0.489
C 	C 	0.3275	0.0976	0.617	-0.277
C 	C 	0.9691	0.2179	0.7105	-0.208
C 	C 	0.7256	0.3148	0.7169	0.231
C 	C 	0.9754	0.2375	0.55437	0.317
C 	C 	0.7243	0.3305	0.5602	-0.219
C 	C 	0.3778	0.4558	0.6509	-0.269
C 	C 	0.4994	0.5695	0.63659	0.422
C 	C 	0.3096	0.8677	0.8128	0.459
C 	C 	0.1275	0.9138	0.891	-0.267
C 	C 	0.336	0.0725	0.9395	0.234
C 	C 	0.4577	0.8818	0.0062	-0.184
C 	C 	0.7857	0.0184	0.3755	0.489
C 	C 	0.6725	0.9024	0.383	-0.277
C 	C 	0.0309	0.7821	0.2895	-0.208
C 	C 	0.2744	0.6852	0.2831	0.231
C 	C 	0.0246	0.7625	0.44563	0.317
C 	C 	0.2757	0.6695	0.4398	-0.219
C 	C 	0.6222	0.5442	0.3491	-0.269
C 	C 	0.5006	0.4305	0.36341	0.422
C 	C 	0.6904	0.1323	0.1872	0.459
C 	C 	0.8725	0.0862	0.109	-0.267
C 	C 	0.664	0.9275	0.0605	0.234
C 	C 	0.5423	0.1182	0.9938	-0.184
N 	N 	0.0907	0.1909	0.62454	-0.098
N 	N 	0.6075	0.3596	0.6456	-0.084
N 	N 	0.3046	0.963	0.94744	-0.085
N 	N 	0.9093	0.8091	0.37546	-0.098
N 	N 	0.3925	0.6404	0.3544	-0.084
N 	N 	0.6954	0.037	0.05256	-0.085
O 	O 	0.3987	0.89788	0.607	-0.53
O 	O 	0.9484	0.97597	0.64874	-0.478
O 	O 	0.0748	0.20812	0.48274	-0.455
O 	O 	0.6366	0.3474	0.78774	-0.248
O 	O 	0.7654	0.57447	0.61213	-0.45
O 	O 	0.3222	0.65697	0.65137	-0.571
O 	O 	0.1961	0.79867	0.77374	-0.578
O 	O 	0.5591	0.9002	0.79347	-0.473
O 	O 	0.2002	0.1396	0.88961	-0.238
O 	O 	0.6013	0.10212	0.393	-0.53
O 	O 	0.0516	0.02403	0.35126	-0.478
O 	O 	0.9252	0.79188	0.51726	-0.455
O 	O 	0.3634	0.6526	0.21226	-0.248
O 	O 	0.2346	0.42553	0.38787	-0.45
O 	O 	0.6778	0.34303	0.34863	-0.571
O 	O 	0.8039	0.20133	0.22626	-0.578
O 	O 	0.4409	0.0998	0.20653	-0.473
O 	O 	0.7998	0.8604	0.11039	-0.238
_end
