data_functionalizedCrystal
_audit_creation_method	'EQeq! by Chris Wilmer'
_symmetry_space_group_name_H-M	'P1'
_symmetry_Int_Tables_number	1
_symmetry_cell_setting	triclinic
loop_
_symmetry_equiv_pos_as_xyz
  x,y,z
_cell_length_a	8.798
_cell_length_b	15.627
_cell_length_c	17.969
_cell_angle_alpha	105.46
_cell_angle_beta	98.58
_cell_angle_gamma	98.15
loop_
_atom_site_label
_atom_site_type_symbol
_atom_site_fract_x
_atom_site_fract_y
_atom_site_fract_z
_atom_site_charge
Eu	Eu	0.82668	0.16992	0.77584	0.817
Eu	Eu	0.17332	0.83008	0.22416	0.768
K 	K 	0.9414	0.29655	0.38712	1.767
K 	K 	0.0586	0.70345	0.61288	1.387
Ni	Ni	-0	0	-0	0.898
Ni	Ni	-3.07415e-17	0	0.5	0.919
Ni	Ni	-0	0.5	-0	0.953
Ni	Ni	0.5	0.5	0.5	1.019
C 	C 	0.9435	0.0612	0.9264	-0.232
C 	C 	0.8326	0.9051	0.9503	-0.138
C 	C 	0.9628	0.061	0.5979	-0.313
C 	C 	0.9286	0.0866	0.4571	-0.316
C 	C 	0.9175	0.3837	0.9321	-0.182
C 	C 	0.839	0.4917	0.0562	-0.285
C 	C 	0.6155	0.4189	0.4498	-0.362
C 	C 	0.3385	0.405	0.4877	-0.42
C 	C 	0.0565	0.9388	0.0736	-0.315
C 	C 	0.1674	0.0949	0.0497	-0.478
C 	C 	0.0372	0.939	0.4021	-0.326
C 	C 	0.0714	0.9134	0.5429	-0.318
C 	C 	0.0825	0.6163	0.0679	-0.383
C 	C 	0.161	0.5083	0.9438	-0.319
C 	C 	0.3845	0.5811	0.5502	-0.365
C 	C 	0.6615	0.595	0.5123	-0.373
N 	N 	0.9119	0.1004	0.8831	-0.196
N 	N 	0.7274	0.8464	0.9234	-0.114
N 	N 	0.9339	0.0978	0.6575	-0.212
N 	N 	0.882	0.1399	0.4303	-0.298
N 	N 	0.8694	0.3135	0.8883	-0.199
N 	N 	0.7437	0.486	0.0926	-0.132
N 	N 	0.691	0.3713	0.4207	-0.311
N 	N 	0.2368	0.3479	0.4798	-0.32
N 	N 	0.0881	0.8996	0.1169	-0.197
N 	N 	0.2726	0.1536	0.0766	-0.15
N 	N 	0.0661	0.9022	0.3425	-0.218
N 	N 	0.118	0.8601	0.5697	-0.262
N 	N 	0.1306	0.6865	0.1117	-0.19
N 	N 	0.2563	0.514	0.9074	-0.115
N 	N 	0.309	0.6287	0.5793	-0.278
N 	N 	0.7632	0.6521	0.5202	-0.211
_end
